[General]
cmdenv-express-mode = true
cmdenv-autoflush = true
cmdenv-status-frequency = 1s

ned-path = .

network = AODVSim

##########################################################
#            Simulation parameters                       #
##########################################################
debug-on-errors = true
print-undisposed = false

sim-time-limit = 6000s

**.scalar-recording = true
**.vector-recording = true

*.configurator.addStaticRoutes = false
*.configurator.optimizeRoutes = false

##########################################################
#            VeinsInetManager parameters             #
##########################################################
*.manager.updateInterval = 0.1s
*.manager.host = "localhost"
*.manager.port = 9999
*.manager.autoShutdown = true

*.manager.moduleType = "vanetsim.simulations.vanet.aodv.AODVCar"
*.manager.moduleName = "vehicle"
#*.manager.moduleDisplayString = ""

##########################################################
#                      Mobility                          #
##########################################################
*.vehicle[*].mobility.typename = "VeinsInetMobility"

######################################################################
#                   Routing
######################################################################
*.visualizer.dataLinkVisualizer.packetFilter = "AODV*"
num-rngs = 3
**.mobility.rng-0 = 1
**.routing.wlan[*].mac.rng-0 = 2

# configurator
**.ipv4.configurator.typename = "HostAutoConfigurator"
**.ipv4.configurator.interfaces = "wlan0"

**.ipv4.routingTable.netmaskRoutes = ""
*.radioMediumType = "Ieee80211ScalarRadioMedium"
**.routing.activeRouteTimeout = 3s
**.routing.forwarding = true

# Ieee80211MgmtAdhoc
#**.wlan[0].opMode = "a"
**.wlan[*].radio.transmitter.communicationRange = 250m
**.wlan[*].radio.transmitter.communicationRange = 300m
**.wlan[*].radio.receiver.ignoreInterference = false
**.wlan[*].radio.transmitter.interferenceRange = 100m
**.wlan[*].radio.bandName = "5.9 GHz"
**.wlan[*].radio.channelNumber = 3
**.wlan[*].radio.transmitter.power = 20mW
**.wlan[*].radio.bandwidth = 10 MHz
**.wlan[*].radio.displayCommunicationRange = true
**.wlan[*].radio.displayInterferenceRange  = true

# nic settings
#**.wlan[*].bitrate = 2Mbps
**.wlan[*].mac.dcf.channelAccess.cwMin = 7
**.wlan[*].radio.transmitter.power = 2mW
**.wlan[*].mgmt.frameCapacity = 10
**.wlan[*].mac.address = "auto"
**.wlan[*].mac.maxQueueSize = 14
**.wlan[*].mac.rtsThresholdBytes = 3000B
**.wlan[*].mac.retryLimit = 7
**.wlan[*].mac.cwMinData = 7
**.wlan[*].mac.cwMinMulticast = 31

#sender
**.numApps = 1
*.vehicle[*].app[0].typename = "veins_inet.VeinsInetVanetRouting"
*.rsu[0].app[0].typename = "PingApp"
**.app[0].startTime = uniform(1s,5s)
**.app[0].printPing = true
**.app[0].sendInterval = exponential(12ms)

######################################################################

######################################################################
# AODV Config
######################################################################

[Config AODV-Simple]
*.manager.launchConfig = xmldoc("..\\..\\_maps\\simple\\sumotest.launchd.xml")
*.**.nic.phy80211p.decider = xmldoc("..\\..\\_maps\\simple\\config.xml")
*.**.nic.phy80211p.analogueModels = xmldoc("..\\..\\_maps\\simple\\config.xml")
*.**.nic[*].phy80211p.decider = xmldoc("..\\..\\_maps\\simple\\config.xml")
*.**.nic[*].phy80211p.analogueModels = xmldoc("..\\..\\_maps\\simple\\config.xml")
*.playgroundSizeX = 2500m
*.playgroundSizeY = 2000m
*.playgroundSizeZ = 50m
**.roiRects = "0,100-2200,2000"#x,y-X,Y
*.numberOfRSU = 1
*.rsu[*].mobility.constraintAreaMinZ = 3m
*.rsu[*].mobility.constraintAreaMaxZ = 3m
*.rsu[*].mobility.constraintAreaMinX = 2000m
*.rsu[*].mobility.constraintAreaMinY = 2000m
*.rsu[*].mobility.constraintAreaMaxX = 2000m
*.rsu[*].mobility.constraintAreaMaxY = 2000m
*.vehicle[*].mobility.constraintAreaMinX = 0m
*.vehicle[*].mobility.constraintAreaMinY = 0m
*.vehicle[*].mobility.constraintAreaMaxX = 2200m
*.vehicle[*].mobility.constraintAreaMaxY = 2200m
*.vehicle[*].mobility.constraintAreaMinZ = 0m
*.vehicle[*].mobility.constraintAreaMaxZ = 0m

[Config AODV-Simple-100]
extends = AODV-Simple
description = "AODV"
*.manager.launchConfig = xmldoc("..\\..\\_maps\\simple\\sumotest100.launchd.xml")
*.numberOfRSU = 1
*.rsu[0].mobility.x = 2000
*.rsu[0].mobility.y = 2000
*.rsu[0].mobility.z = 3

[Config AODV-Simple-200]
extends = AODV-Simple
description = "AODV"
*.manager.launchConfig = xmldoc("..\\..\\_maps\\simple\\sumotest200.launchd.xml")
*.numberOfRSU = 1
*.rsu[0].mobility.x = 2000
*.rsu[0].mobility.y = 2000
*.rsu[0].mobility.z = 3

[Config AODV-Simple-300]
extends = AODV-Simple
description = "AODV"
*.manager.launchConfig = xmldoc("..\\..\\_maps\\simple\\sumotest300.launchd.xml")
*.numberOfRSU = 1
*.rsu[0].mobility.x = 2000
*.rsu[0].mobility.y = 2000
*.rsu[0].mobility.z = 3

[Config AODV-i95]
*.manager.launchConfig = xmldoc("..\\..\\_maps\\i95highway\\i95highway.launchd.xml")
*.**.nic.phy80211p.decider = xmldoc("..\\..\\_maps\\i95highway\\config.xml")
*.**.nic.phy80211p.analogueModels = xmldoc("..\\..\\_maps\\i95highway\\config.xml")
*.**.nic[*].phy80211p.decider = xmldoc("..\\..\\_maps\\i95highway\\config.xml")
*.**.nic[*].phy80211p.analogueModels = xmldoc("..\\..\\_maps\\i95highway\\config.xml")
*.playgroundSizeX = 3000m
*.playgroundSizeY = 3000m
*.playgroundSizeZ = 50m
**.roiRects = "0,0-8000,15000"#x,y-X,Y
*.numberOfRSU = 1
*.rsu[0].mobility.x = 2000
*.rsu[0].mobility.y = 2000
*.rsu[0].mobility.z = 3

[Config AODV-i95-100]
extends = AODV-i95
description = "AODV"
*.manager.launchConfig = xmldoc("..\\..\\_maps\\i95highway\\i95highway100.launchd.xml")
*.playgroundSizeX = 3000m
*.playgroundSizeY = 3000m
*.playgroundSizeZ = 50m
**.roiRects = "0,0-8000,15000"#x,y-X,Y
*.numberOfRSU = 1
*.rsu[0].mobility.x = 2000
*.rsu[0].mobility.y = 2000
*.rsu[0].mobility.z = 3

[Config AODV-i95-200]
extends = AODV-i95
description = "AODV"
*.manager.launchConfig = xmldoc("..\\..\\_maps\\i95highway\\i95highway200.launchd.xml")
*.playgroundSizeX = 3000m
*.playgroundSizeY = 3000m
*.playgroundSizeZ = 50m
**.roiRects = "0,0-8000,15000"#x,y-X,Y
*.numberOfRSU = 1
*.rsu[0].mobility.x = 2000
*.rsu[0].mobility.y = 2000
*.rsu[0].mobility.z = 3

[Config AODV-i95-300]
extends = AODV-i95
description = "AODV"
*.manager.launchConfig = xmldoc("..\\..\\_maps\\i95highway\\i95highway300.launchd.xml")
*.playgroundSizeX = 3000m
*.playgroundSizeY = 3000m
*.playgroundSizeZ = 50m
**.roiRects = "0,0-8000,15000"#x,y-X,Y
*.numberOfRSU = 1
*.rsu[0].mobility.x = 2000
*.rsu[0].mobility.y = 2000
*.rsu[0].mobility.z = 3

[Config AODV-Orlando]
description = "AODV"
*.manager.launchConfig = xmldoc("..\\..\\_maps\\downtownorlando\\downtownorlando.launchd.xml")
*.**.nic.phy80211p.decider = xmldoc("..\\..\\_maps\\downtownorlando\\config.xml")
*.**.nic.phy80211p.analogueModels = xmldoc("..\\..\\_maps\\downtownorlando\\config.xml")
*.**.nic[*].phy80211p.decider = xmldoc("..\\..\\_maps\\downtownorlando\\config.xml")
*.**.nic[*].phy80211p.analogueModels = xmldoc("..\\..\\_maps\\downtownorlando\\config.xml")
*.playgroundSizeX = 3000m
*.playgroundSizeY = 3000m
*.playgroundSizeZ = 50m
**.roiRects = "0,0-2000,2000"#x,y-X,Y
*.numberOfRSU = 1
*.rsu[0].mobility.x = 2000
*.rsu[0].mobility.y = 2000
*.rsu[0].mobility.z = 3

[Config AODV-SanFrancisco]
description = "AODV"
*.annotations.draw = false
*.obstacles.debug = true
*.world.useTorus = true
*.world.use2D = true
*.manager.launchConfig = xmldoc("..\\..\\_maps\\sanfrancisco\\sanfrancisco.launchd.xml")
*.**.nic.phy80211p.decider = xmldoc("..\\..\\_maps\\sanfrancisco\\config.xml")
*.**.nic.phy80211p.analogueModels = xmldoc("..\\..\\_maps\\sanfrancisco\\config.xml")
*.obstacles.obstacles = xmldoc("..\\..\\_maps\\sanfrancisco\\sanfrancisco.obstacles.xml")
*.playgroundSizeX = 3000m
*.playgroundSizeY = 3000m
*.playgroundSizeZ = 50m
**.roiRects = "0,0-2000,2000"#x,y-X,Y
*.numberOfRSU = 1
*.rsu[0].mobility.x = 2000
*.rsu[0].mobility.y = 2000
*.rsu[0].mobility.z = 3

[Config AODV-Erlangen]
description = "AODV"
*.annotations.draw = true
*.obstacles.debug = true
*.obstacles.obstacles = xmldoc("..\\..\\_maps\\erlangen\\config.xml", "//AnalogueModel[@type='SimpleObstacleShadowing']/obstacles")
*.manager.launchConfig = xmldoc("..\\..\\_maps\\erlangen\\erlangen.launchd.xml")
*.**.nic.phy80211p.decider = xmldoc("..\\..\\_maps\\erlangen\\config.xml")
*.**.nic.phy80211p.analogueModels = xmldoc("..\\..\\_maps\\erlangen\\config.xml")
*.**.nic[*].phy80211p.decider = xmldoc("..\\..\\_maps\\erlangen\\config.xml")
*.**.nic[*].phy80211p.analogueModels = xmldoc("..\\..\\_maps\\erlangen\\config.xml")
*.playgroundSizeX = 2500m
*.playgroundSizeY = 2500m
*.playgroundSizeZ = 50m
*.vehicle[*0].host[*].mobility.accidentCount = 1
*.vehicle[*0].host[*].mobility.accidentStart = 75s
*.vehicle[*0].host[*].mobility.accidentDuration = 30s
*.numberOfRSU = 1
*.rsu[0].mobility.x = 2000
*.rsu[0].mobility.y = 2000
*.rsu[0].mobility.z = 3

[Config AODV-ManhattanGrid]
description = "AODV"
*.annotations.draw = true
*.obstacles.debug = true
*.manager.launchConfig = xmldoc("..\\..\\_maps\\manhattangrid\\manhattangrid.launchd.xml")
*.**.nic.phy80211p.decider = xmldoc("..\\..\\_maps\\manhattangrid\\config.xml")
*.**.nic.phy80211p.analogueModels = xmldoc("..\\..\\_maps\\manhattangrid\\config.xml")
*.**.nic[*].phy80211p.decider = xmldoc("..\\..\\_maps\\manhattangrid\\config.xml")
*.**.nic[*].phy80211p.analogueModels = xmldoc("..\\..\\_maps\\manhattangrid\\config.xml")
*.playgroundSizeX = 2500m
*.playgroundSizeY = 2500m
*.playgroundSizeZ = 50m
*.numberOfRSU = 1
*.rsu[0].mobility.x = 2000
*.rsu[0].mobility.y = 2000
*.rsu[0].mobility.z = 3
