<?xml version="1.0" encoding="UTF-8"?>

<!-- generated on 12/27/15 22:31:07 by SUMO netgenerate Version 0.19.0
<?xml version="1.0" encoding="UTF-8"?>

<configuration xmlns:xsi="http://www.w3.org/2001/XMLSchema-instance" xsi:noNamespaceSchemaLocation="http://sumo-sim.org/xsd/netgenerateConfiguration.xsd">

    <grid_network>
        <grid value="true"/>
        <grid.x-number value="6"/>
        <grid.y-number value="3"/>
        <grid.x-length value="270"/>
        <grid.y-length value="80"/>
    </grid_network>

    <output>
        <output-file value="manhattangrid.net.xml"/>
    </output>

</configuration>
-->

<net version="0.13" xmlns:xsi="http://www.w3.org/2001/XMLSchema-instance" xsi:noNamespaceSchemaLocation="http://sumo-sim.org/xsd/net_file.xsd">

    <location netOffset="0.00,0.00" convBoundary="0.00,0.00,1350.00,160.00" origBoundary="0.00,0.00,1350.00,160.00" projParameter="!"/>

    <edge id=":0/0_0" function="internal">
        <lane id=":0/0_0_0" index="0" speed="13.90" length="7.90" shape="-1.65,3.25 -1.34,1.11 -0.42,-0.43 1.11,-1.34 3.25,-1.65"/>
    </edge>
    <edge id=":0/0_1" function="internal">
        <lane id=":0/0_1_0" index="0" speed="13.90" length="2.41" shape="-1.65,3.25 -0.83,2.01 -0.00,1.60"/>
    </edge>
    <edge id=":0/0_4" function="internal">
        <lane id=":0/0_4_0" index="0" speed="13.90" length="2.41" shape="-0.00,1.60 0.82,2.01 1.65,3.25"/>
    </edge>
    <edge id=":0/0_2" function="internal">
        <lane id=":0/0_2_0" index="0" speed="13.90" length="2.58" shape="3.25,1.65 2.55,1.75 2.05,2.05 1.75,2.55 1.65,3.25"/>
    </edge>
    <edge id=":0/0_3" function="internal">
        <lane id=":0/0_3_0" index="0" speed="13.90" length="2.41" shape="3.25,1.65 2.01,0.83 1.60,0.00"/>
    </edge>
    <edge id=":0/0_5" function="internal">
        <lane id=":0/0_5_0" index="0" speed="13.90" length="2.41" shape="1.60,0.00 2.01,-0.82 3.25,-1.65"/>
    </edge>
    <edge id=":0/1_0" function="internal">
        <lane id=":0/1_0_0" index="0" speed="13.90" length="9.50" shape="-1.65,84.75 -1.65,75.25"/>
    </edge>
    <edge id=":0/1_1" function="internal">
        <lane id=":0/1_1_0" index="0" speed="13.90" length="7.14" shape="-1.65,84.75 -1.25,81.95 -0.05,79.95 1.65,78.93"/>
    </edge>
    <edge id=":0/1_2" function="internal">
        <lane id=":0/1_2_0" index="0" speed="13.90" length="2.41" shape="-1.65,84.75 -0.83,83.51 -0.00,83.10"/>
    </edge>
    <edge id=":0/1_9" function="internal">
        <lane id=":0/1_9_0" index="0" speed="13.90" length="3.18" shape="1.65,78.93 1.95,78.75 4.75,78.35"/>
    </edge>
    <edge id=":0/1_10" function="internal">
        <lane id=":0/1_10_0" index="0" speed="13.90" length="2.41" shape="-0.00,83.10 0.82,83.51 1.65,84.75"/>
    </edge>
    <edge id=":0/1_3" function="internal">
        <lane id=":0/1_3_0" index="0" speed="13.90" length="5.00" shape="4.75,81.65 3.39,81.84 2.42,82.43 1.84,83.39 1.65,84.75"/>
    </edge>
    <edge id=":0/1_4" function="internal">
        <lane id=":0/1_4_0" index="0" speed="13.90" length="10.32" shape="4.75,81.65 1.95,81.25 -0.05,80.05 -1.25,78.05 -1.65,75.25"/>
    </edge>
    <edge id=":0/1_5" function="internal">
        <lane id=":0/1_5_0" index="0" speed="13.90" length="4.82" shape="4.75,81.65 3.51,80.82 3.10,80.00 3.51,79.17 4.75,78.35"/>
    </edge>
    <edge id=":0/1_6" function="internal">
        <lane id=":0/1_6_0" index="0" speed="13.90" length="5.00" shape="1.65,75.25 1.84,76.61 2.42,77.57 3.39,78.16 4.75,78.35"/>
    </edge>
    <edge id=":0/1_7" function="internal">
        <lane id=":0/1_7_0" index="0" speed="13.90" length="9.50" shape="1.65,75.25 1.65,84.75"/>
    </edge>
    <edge id=":0/1_8" function="internal">
        <lane id=":0/1_8_0" index="0" speed="13.90" length="2.41" shape="1.65,75.25 0.83,76.49 0.00,76.90"/>
    </edge>
    <edge id=":0/1_11" function="internal">
        <lane id=":0/1_11_0" index="0" speed="13.90" length="2.41" shape="0.00,76.90 -0.82,76.49 -1.65,75.25"/>
    </edge>
    <edge id=":0/2_0" function="internal">
        <lane id=":0/2_0_0" index="0" speed="13.90" length="7.90" shape="3.25,161.65 1.11,161.34 -0.42,160.43 -1.34,158.89 -1.65,156.75"/>
    </edge>
    <edge id=":0/2_1" function="internal">
        <lane id=":0/2_1_0" index="0" speed="13.90" length="2.41" shape="3.25,161.65 2.01,160.83 1.60,160.00"/>
    </edge>
    <edge id=":0/2_4" function="internal">
        <lane id=":0/2_4_0" index="0" speed="13.90" length="2.41" shape="1.60,160.00 2.01,159.18 3.25,158.35"/>
    </edge>
    <edge id=":0/2_2" function="internal">
        <lane id=":0/2_2_0" index="0" speed="13.90" length="2.58" shape="1.65,156.75 1.75,157.45 2.05,157.95 2.55,158.25 3.25,158.35"/>
    </edge>
    <edge id=":0/2_3" function="internal">
        <lane id=":0/2_3_0" index="0" speed="13.90" length="2.41" shape="1.65,156.75 0.83,157.99 0.00,158.40"/>
    </edge>
    <edge id=":0/2_5" function="internal">
        <lane id=":0/2_5_0" index="0" speed="13.90" length="2.41" shape="0.00,158.40 -0.82,157.99 -1.65,156.75"/>
    </edge>
    <edge id=":1/0_0" function="internal">
        <lane id=":1/0_0_0" index="0" speed="13.90" length="5.00" shape="268.35,4.75 268.16,3.39 267.58,2.43 266.61,1.84 265.25,1.65"/>
    </edge>
    <edge id=":1/0_1" function="internal">
        <lane id=":1/0_1_0" index="0" speed="13.90" length="10.32" shape="268.35,4.75 268.75,1.95 269.95,-0.05 271.95,-1.25 274.75,-1.65"/>
    </edge>
    <edge id=":1/0_2" function="internal">
        <lane id=":1/0_2_0" index="0" speed="13.90" length="4.82" shape="268.35,4.75 269.18,3.51 270.00,3.10 270.82,3.51 271.65,4.75"/>
    </edge>
    <edge id=":1/0_3" function="internal">
        <lane id=":1/0_3_0" index="0" speed="13.90" length="5.00" shape="274.75,1.65 273.39,1.84 272.42,2.43 271.84,3.39 271.65,4.75"/>
    </edge>
    <edge id=":1/0_4" function="internal">
        <lane id=":1/0_4_0" index="0" speed="13.90" length="9.50" shape="274.75,1.65 265.25,1.65"/>
    </edge>
    <edge id=":1/0_5" function="internal">
        <lane id=":1/0_5_0" index="0" speed="13.90" length="2.41" shape="274.75,1.65 273.51,0.83 273.10,0.00"/>
    </edge>
    <edge id=":1/0_9" function="internal">
        <lane id=":1/0_9_0" index="0" speed="13.90" length="2.41" shape="273.10,0.00 273.51,-0.82 274.75,-1.65"/>
    </edge>
    <edge id=":1/0_6" function="internal">
        <lane id=":1/0_6_0" index="0" speed="13.90" length="9.50" shape="265.25,-1.65 274.75,-1.65"/>
    </edge>
    <edge id=":1/0_7" function="internal">
        <lane id=":1/0_7_0" index="0" speed="13.90" length="7.14" shape="265.25,-1.65 268.05,-1.25 270.05,-0.05 271.07,1.65"/>
    </edge>
    <edge id=":1/0_8" function="internal">
        <lane id=":1/0_8_0" index="0" speed="13.90" length="2.41" shape="265.25,-1.65 266.49,-0.83 266.90,-0.00"/>
    </edge>
    <edge id=":1/0_10" function="internal">
        <lane id=":1/0_10_0" index="0" speed="13.90" length="3.18" shape="271.07,1.65 271.25,1.95 271.65,4.75"/>
    </edge>
    <edge id=":1/0_11" function="internal">
        <lane id=":1/0_11_0" index="0" speed="13.90" length="2.41" shape="266.90,-0.00 266.49,0.82 265.25,1.65"/>
    </edge>
    <edge id=":1/1_0" function="internal">
        <lane id=":1/1_0_0" index="0" speed="13.90" length="5.00" shape="268.35,84.75 268.16,83.39 267.58,82.43 266.61,81.84 265.25,81.65"/>
    </edge>
    <edge id=":1/1_1" function="internal">
        <lane id=":1/1_1_0" index="0" speed="13.90" length="9.50" shape="268.35,84.75 268.35,75.25"/>
    </edge>
    <edge id=":1/1_2" function="internal">
        <lane id=":1/1_2_0" index="0" speed="13.90" length="7.14" shape="268.35,84.75 268.75,81.95 269.95,79.95 271.65,78.93"/>
    </edge>
    <edge id=":1/1_3" function="internal">
        <lane id=":1/1_3_0" index="0" speed="13.90" length="2.41" shape="268.35,84.75 269.18,83.51 270.00,83.10"/>
    </edge>
    <edge id=":1/1_16" function="internal">
        <lane id=":1/1_16_0" index="0" speed="13.90" length="3.18" shape="271.65,78.93 271.95,78.75 274.75,78.35"/>
    </edge>
    <edge id=":1/1_17" function="internal">
        <lane id=":1/1_17_0" index="0" speed="13.90" length="2.41" shape="270.00,83.10 270.82,83.51 271.65,84.75"/>
    </edge>
    <edge id=":1/1_4" function="internal">
        <lane id=":1/1_4_0" index="0" speed="13.90" length="5.00" shape="274.75,81.65 273.39,81.84 272.42,82.43 271.84,83.39 271.65,84.75"/>
    </edge>
    <edge id=":1/1_5" function="internal">
        <lane id=":1/1_5_0" index="0" speed="13.90" length="9.50" shape="274.75,81.65 265.25,81.65"/>
    </edge>
    <edge id=":1/1_6" function="internal">
        <lane id=":1/1_6_0" index="0" speed="13.90" length="10.32" shape="274.75,81.65 271.95,81.25 269.95,80.05 268.75,78.05 268.35,75.25"/>
    </edge>
    <edge id=":1/1_7" function="internal">
        <lane id=":1/1_7_0" index="0" speed="13.90" length="4.82" shape="274.75,81.65 273.51,80.82 273.10,80.00 273.51,79.17 274.75,78.35"/>
    </edge>
    <edge id=":1/1_8" function="internal">
        <lane id=":1/1_8_0" index="0" speed="13.90" length="5.00" shape="271.65,75.25 271.84,76.61 272.42,77.57 273.39,78.16 274.75,78.35"/>
    </edge>
    <edge id=":1/1_9" function="internal">
        <lane id=":1/1_9_0" index="0" speed="13.90" length="9.50" shape="271.65,75.25 271.65,84.75"/>
    </edge>
    <edge id=":1/1_10" function="internal">
        <lane id=":1/1_10_0" index="0" speed="13.90" length="7.14" shape="271.65,75.25 271.25,78.05 270.05,80.05 268.35,81.07"/>
    </edge>
    <edge id=":1/1_11" function="internal">
        <lane id=":1/1_11_0" index="0" speed="13.90" length="2.41" shape="271.65,75.25 270.82,76.49 270.00,76.90"/>
    </edge>
    <edge id=":1/1_18" function="internal">
        <lane id=":1/1_18_0" index="0" speed="13.90" length="3.18" shape="268.35,81.07 268.05,81.25 265.25,81.65"/>
    </edge>
    <edge id=":1/1_19" function="internal">
        <lane id=":1/1_19_0" index="0" speed="13.90" length="2.41" shape="270.00,76.90 269.18,76.49 268.35,75.25"/>
    </edge>
    <edge id=":1/1_12" function="internal">
        <lane id=":1/1_12_0" index="0" speed="13.90" length="5.00" shape="265.25,78.35 266.61,78.16 267.58,77.57 268.16,76.61 268.35,75.25"/>
    </edge>
    <edge id=":1/1_13" function="internal">
        <lane id=":1/1_13_0" index="0" speed="13.90" length="9.50" shape="265.25,78.35 274.75,78.35"/>
    </edge>
    <edge id=":1/1_14" function="internal">
        <lane id=":1/1_14_0" index="0" speed="13.90" length="10.32" shape="265.25,78.35 268.05,78.75 270.05,79.95 271.25,81.95 271.65,84.75"/>
    </edge>
    <edge id=":1/1_15" function="internal">
        <lane id=":1/1_15_0" index="0" speed="13.90" length="4.82" shape="265.25,78.35 266.49,79.18 266.90,80.00 266.49,80.83 265.25,81.65"/>
    </edge>
    <edge id=":1/2_0" function="internal">
        <lane id=":1/2_0_0" index="0" speed="13.90" length="9.50" shape="274.75,161.65 265.25,161.65"/>
    </edge>
    <edge id=":1/2_1" function="internal">
        <lane id=":1/2_1_0" index="0" speed="13.90" length="7.14" shape="274.75,161.65 271.95,161.25 269.95,160.05 268.93,158.35"/>
    </edge>
    <edge id=":1/2_2" function="internal">
        <lane id=":1/2_2_0" index="0" speed="13.90" length="2.41" shape="274.75,161.65 273.51,160.83 273.10,160.00"/>
    </edge>
    <edge id=":1/2_9" function="internal">
        <lane id=":1/2_9_0" index="0" speed="13.90" length="3.18" shape="268.93,158.35 268.75,158.05 268.35,155.25"/>
    </edge>
    <edge id=":1/2_10" function="internal">
        <lane id=":1/2_10_0" index="0" speed="13.90" length="2.41" shape="273.10,160.00 273.51,159.18 274.75,158.35"/>
    </edge>
    <edge id=":1/2_3" function="internal">
        <lane id=":1/2_3_0" index="0" speed="13.90" length="5.00" shape="271.65,155.25 271.84,156.61 272.42,157.57 273.39,158.16 274.75,158.35"/>
    </edge>
    <edge id=":1/2_4" function="internal">
        <lane id=":1/2_4_0" index="0" speed="13.90" length="10.32" shape="271.65,155.25 271.25,158.05 270.05,160.05 268.05,161.25 265.25,161.65"/>
    </edge>
    <edge id=":1/2_5" function="internal">
        <lane id=":1/2_5_0" index="0" speed="13.90" length="4.82" shape="271.65,155.25 270.82,156.49 270.00,156.90 269.18,156.49 268.35,155.25"/>
    </edge>
    <edge id=":1/2_6" function="internal">
        <lane id=":1/2_6_0" index="0" speed="13.90" length="5.00" shape="265.25,158.35 266.61,158.16 267.58,157.57 268.16,156.61 268.35,155.25"/>
    </edge>
    <edge id=":1/2_7" function="internal">
        <lane id=":1/2_7_0" index="0" speed="13.90" length="9.50" shape="265.25,158.35 274.75,158.35"/>
    </edge>
    <edge id=":1/2_8" function="internal">
        <lane id=":1/2_8_0" index="0" speed="13.90" length="2.41" shape="265.25,158.35 266.49,159.17 266.90,160.00"/>
    </edge>
    <edge id=":1/2_11" function="internal">
        <lane id=":1/2_11_0" index="0" speed="13.90" length="2.41" shape="266.90,160.00 266.49,160.82 265.25,161.65"/>
    </edge>
    <edge id=":2/0_0" function="internal">
        <lane id=":2/0_0_0" index="0" speed="13.90" length="5.00" shape="538.35,4.75 538.16,3.39 537.58,2.43 536.61,1.84 535.25,1.65"/>
    </edge>
    <edge id=":2/0_1" function="internal">
        <lane id=":2/0_1_0" index="0" speed="13.90" length="10.32" shape="538.35,4.75 538.75,1.95 539.95,-0.05 541.95,-1.25 544.75,-1.65"/>
    </edge>
    <edge id=":2/0_2" function="internal">
        <lane id=":2/0_2_0" index="0" speed="13.90" length="4.82" shape="538.35,4.75 539.18,3.51 540.00,3.10 540.82,3.51 541.65,4.75"/>
    </edge>
    <edge id=":2/0_3" function="internal">
        <lane id=":2/0_3_0" index="0" speed="13.90" length="5.00" shape="544.75,1.65 543.39,1.84 542.42,2.43 541.84,3.39 541.65,4.75"/>
    </edge>
    <edge id=":2/0_4" function="internal">
        <lane id=":2/0_4_0" index="0" speed="13.90" length="9.50" shape="544.75,1.65 535.25,1.65"/>
    </edge>
    <edge id=":2/0_5" function="internal">
        <lane id=":2/0_5_0" index="0" speed="13.90" length="2.41" shape="544.75,1.65 543.51,0.83 543.10,0.00"/>
    </edge>
    <edge id=":2/0_9" function="internal">
        <lane id=":2/0_9_0" index="0" speed="13.90" length="2.41" shape="543.10,0.00 543.51,-0.82 544.75,-1.65"/>
    </edge>
    <edge id=":2/0_6" function="internal">
        <lane id=":2/0_6_0" index="0" speed="13.90" length="9.50" shape="535.25,-1.65 544.75,-1.65"/>
    </edge>
    <edge id=":2/0_7" function="internal">
        <lane id=":2/0_7_0" index="0" speed="13.90" length="7.14" shape="535.25,-1.65 538.05,-1.25 540.05,-0.05 541.07,1.65"/>
    </edge>
    <edge id=":2/0_8" function="internal">
        <lane id=":2/0_8_0" index="0" speed="13.90" length="2.41" shape="535.25,-1.65 536.49,-0.83 536.90,-0.00"/>
    </edge>
    <edge id=":2/0_10" function="internal">
        <lane id=":2/0_10_0" index="0" speed="13.90" length="3.18" shape="541.07,1.65 541.25,1.95 541.65,4.75"/>
    </edge>
    <edge id=":2/0_11" function="internal">
        <lane id=":2/0_11_0" index="0" speed="13.90" length="2.41" shape="536.90,-0.00 536.49,0.82 535.25,1.65"/>
    </edge>
    <edge id=":2/1_0" function="internal">
        <lane id=":2/1_0_0" index="0" speed="13.90" length="5.00" shape="538.35,84.75 538.16,83.39 537.58,82.43 536.61,81.84 535.25,81.65"/>
    </edge>
    <edge id=":2/1_1" function="internal">
        <lane id=":2/1_1_0" index="0" speed="13.90" length="9.50" shape="538.35,84.75 538.35,75.25"/>
    </edge>
    <edge id=":2/1_2" function="internal">
        <lane id=":2/1_2_0" index="0" speed="13.90" length="7.14" shape="538.35,84.75 538.75,81.95 539.95,79.95 541.65,78.93"/>
    </edge>
    <edge id=":2/1_3" function="internal">
        <lane id=":2/1_3_0" index="0" speed="13.90" length="2.41" shape="538.35,84.75 539.18,83.51 540.00,83.10"/>
    </edge>
    <edge id=":2/1_16" function="internal">
        <lane id=":2/1_16_0" index="0" speed="13.90" length="3.18" shape="541.65,78.93 541.95,78.75 544.75,78.35"/>
    </edge>
    <edge id=":2/1_17" function="internal">
        <lane id=":2/1_17_0" index="0" speed="13.90" length="2.41" shape="540.00,83.10 540.82,83.51 541.65,84.75"/>
    </edge>
    <edge id=":2/1_4" function="internal">
        <lane id=":2/1_4_0" index="0" speed="13.90" length="5.00" shape="544.75,81.65 543.39,81.84 542.42,82.43 541.84,83.39 541.65,84.75"/>
    </edge>
    <edge id=":2/1_5" function="internal">
        <lane id=":2/1_5_0" index="0" speed="13.90" length="9.50" shape="544.75,81.65 535.25,81.65"/>
    </edge>
    <edge id=":2/1_6" function="internal">
        <lane id=":2/1_6_0" index="0" speed="13.90" length="10.32" shape="544.75,81.65 541.95,81.25 539.95,80.05 538.75,78.05 538.35,75.25"/>
    </edge>
    <edge id=":2/1_7" function="internal">
        <lane id=":2/1_7_0" index="0" speed="13.90" length="4.82" shape="544.75,81.65 543.51,80.82 543.10,80.00 543.51,79.17 544.75,78.35"/>
    </edge>
    <edge id=":2/1_8" function="internal">
        <lane id=":2/1_8_0" index="0" speed="13.90" length="5.00" shape="541.65,75.25 541.84,76.61 542.42,77.57 543.39,78.16 544.75,78.35"/>
    </edge>
    <edge id=":2/1_9" function="internal">
        <lane id=":2/1_9_0" index="0" speed="13.90" length="9.50" shape="541.65,75.25 541.65,84.75"/>
    </edge>
    <edge id=":2/1_10" function="internal">
        <lane id=":2/1_10_0" index="0" speed="13.90" length="7.14" shape="541.65,75.25 541.25,78.05 540.05,80.05 538.35,81.07"/>
    </edge>
    <edge id=":2/1_11" function="internal">
        <lane id=":2/1_11_0" index="0" speed="13.90" length="2.41" shape="541.65,75.25 540.82,76.49 540.00,76.90"/>
    </edge>
    <edge id=":2/1_18" function="internal">
        <lane id=":2/1_18_0" index="0" speed="13.90" length="3.18" shape="538.35,81.07 538.05,81.25 535.25,81.65"/>
    </edge>
    <edge id=":2/1_19" function="internal">
        <lane id=":2/1_19_0" index="0" speed="13.90" length="2.41" shape="540.00,76.90 539.18,76.49 538.35,75.25"/>
    </edge>
    <edge id=":2/1_12" function="internal">
        <lane id=":2/1_12_0" index="0" speed="13.90" length="5.00" shape="535.25,78.35 536.61,78.16 537.58,77.57 538.16,76.61 538.35,75.25"/>
    </edge>
    <edge id=":2/1_13" function="internal">
        <lane id=":2/1_13_0" index="0" speed="13.90" length="9.50" shape="535.25,78.35 544.75,78.35"/>
    </edge>
    <edge id=":2/1_14" function="internal">
        <lane id=":2/1_14_0" index="0" speed="13.90" length="10.32" shape="535.25,78.35 538.05,78.75 540.05,79.95 541.25,81.95 541.65,84.75"/>
    </edge>
    <edge id=":2/1_15" function="internal">
        <lane id=":2/1_15_0" index="0" speed="13.90" length="4.82" shape="535.25,78.35 536.49,79.18 536.90,80.00 536.49,80.83 535.25,81.65"/>
    </edge>
    <edge id=":2/2_0" function="internal">
        <lane id=":2/2_0_0" index="0" speed="13.90" length="9.50" shape="544.75,161.65 535.25,161.65"/>
    </edge>
    <edge id=":2/2_1" function="internal">
        <lane id=":2/2_1_0" index="0" speed="13.90" length="7.14" shape="544.75,161.65 541.95,161.25 539.95,160.05 538.93,158.35"/>
    </edge>
    <edge id=":2/2_2" function="internal">
        <lane id=":2/2_2_0" index="0" speed="13.90" length="2.41" shape="544.75,161.65 543.51,160.83 543.10,160.00"/>
    </edge>
    <edge id=":2/2_9" function="internal">
        <lane id=":2/2_9_0" index="0" speed="13.90" length="3.18" shape="538.93,158.35 538.75,158.05 538.35,155.25"/>
    </edge>
    <edge id=":2/2_10" function="internal">
        <lane id=":2/2_10_0" index="0" speed="13.90" length="2.41" shape="543.10,160.00 543.51,159.18 544.75,158.35"/>
    </edge>
    <edge id=":2/2_3" function="internal">
        <lane id=":2/2_3_0" index="0" speed="13.90" length="5.00" shape="541.65,155.25 541.84,156.61 542.42,157.57 543.39,158.16 544.75,158.35"/>
    </edge>
    <edge id=":2/2_4" function="internal">
        <lane id=":2/2_4_0" index="0" speed="13.90" length="10.32" shape="541.65,155.25 541.25,158.05 540.05,160.05 538.05,161.25 535.25,161.65"/>
    </edge>
    <edge id=":2/2_5" function="internal">
        <lane id=":2/2_5_0" index="0" speed="13.90" length="4.82" shape="541.65,155.25 540.82,156.49 540.00,156.90 539.18,156.49 538.35,155.25"/>
    </edge>
    <edge id=":2/2_6" function="internal">
        <lane id=":2/2_6_0" index="0" speed="13.90" length="5.00" shape="535.25,158.35 536.61,158.16 537.58,157.57 538.16,156.61 538.35,155.25"/>
    </edge>
    <edge id=":2/2_7" function="internal">
        <lane id=":2/2_7_0" index="0" speed="13.90" length="9.50" shape="535.25,158.35 544.75,158.35"/>
    </edge>
    <edge id=":2/2_8" function="internal">
        <lane id=":2/2_8_0" index="0" speed="13.90" length="2.41" shape="535.25,158.35 536.49,159.17 536.90,160.00"/>
    </edge>
    <edge id=":2/2_11" function="internal">
        <lane id=":2/2_11_0" index="0" speed="13.90" length="2.41" shape="536.90,160.00 536.49,160.82 535.25,161.65"/>
    </edge>
    <edge id=":3/0_0" function="internal">
        <lane id=":3/0_0_0" index="0" speed="13.90" length="5.00" shape="808.35,4.75 808.16,3.39 807.58,2.43 806.61,1.84 805.25,1.65"/>
    </edge>
    <edge id=":3/0_1" function="internal">
        <lane id=":3/0_1_0" index="0" speed="13.90" length="10.32" shape="808.35,4.75 808.75,1.95 809.95,-0.05 811.95,-1.25 814.75,-1.65"/>
    </edge>
    <edge id=":3/0_2" function="internal">
        <lane id=":3/0_2_0" index="0" speed="13.90" length="4.82" shape="808.35,4.75 809.18,3.51 810.00,3.10 810.83,3.51 811.65,4.75"/>
    </edge>
    <edge id=":3/0_3" function="internal">
        <lane id=":3/0_3_0" index="0" speed="13.90" length="5.00" shape="814.75,1.65 813.39,1.84 812.43,2.43 811.84,3.39 811.65,4.75"/>
    </edge>
    <edge id=":3/0_4" function="internal">
        <lane id=":3/0_4_0" index="0" speed="13.90" length="9.50" shape="814.75,1.65 805.25,1.65"/>
    </edge>
    <edge id=":3/0_5" function="internal">
        <lane id=":3/0_5_0" index="0" speed="13.90" length="2.41" shape="814.75,1.65 813.51,0.83 813.10,0.00"/>
    </edge>
    <edge id=":3/0_9" function="internal">
        <lane id=":3/0_9_0" index="0" speed="13.90" length="2.41" shape="813.10,0.00 813.51,-0.82 814.75,-1.65"/>
    </edge>
    <edge id=":3/0_6" function="internal">
        <lane id=":3/0_6_0" index="0" speed="13.90" length="9.50" shape="805.25,-1.65 814.75,-1.65"/>
    </edge>
    <edge id=":3/0_7" function="internal">
        <lane id=":3/0_7_0" index="0" speed="13.90" length="7.14" shape="805.25,-1.65 808.05,-1.25 810.05,-0.05 811.07,1.65"/>
    </edge>
    <edge id=":3/0_8" function="internal">
        <lane id=":3/0_8_0" index="0" speed="13.90" length="2.41" shape="805.25,-1.65 806.49,-0.83 806.90,-0.00"/>
    </edge>
    <edge id=":3/0_10" function="internal">
        <lane id=":3/0_10_0" index="0" speed="13.90" length="3.18" shape="811.07,1.65 811.25,1.95 811.65,4.75"/>
    </edge>
    <edge id=":3/0_11" function="internal">
        <lane id=":3/0_11_0" index="0" speed="13.90" length="2.41" shape="806.90,-0.00 806.49,0.82 805.25,1.65"/>
    </edge>
    <edge id=":3/1_0" function="internal">
        <lane id=":3/1_0_0" index="0" speed="13.90" length="5.00" shape="808.35,84.75 808.16,83.39 807.58,82.43 806.61,81.84 805.25,81.65"/>
    </edge>
    <edge id=":3/1_1" function="internal">
        <lane id=":3/1_1_0" index="0" speed="13.90" length="9.50" shape="808.35,84.75 808.35,75.25"/>
    </edge>
    <edge id=":3/1_2" function="internal">
        <lane id=":3/1_2_0" index="0" speed="13.90" length="7.14" shape="808.35,84.75 808.75,81.95 809.95,79.95 811.65,78.93"/>
    </edge>
    <edge id=":3/1_3" function="internal">
        <lane id=":3/1_3_0" index="0" speed="13.90" length="2.41" shape="808.35,84.75 809.18,83.51 810.00,83.10"/>
    </edge>
    <edge id=":3/1_16" function="internal">
        <lane id=":3/1_16_0" index="0" speed="13.90" length="3.18" shape="811.65,78.93 811.95,78.75 814.75,78.35"/>
    </edge>
    <edge id=":3/1_17" function="internal">
        <lane id=":3/1_17_0" index="0" speed="13.90" length="2.41" shape="810.00,83.10 810.83,83.51 811.65,84.75"/>
    </edge>
    <edge id=":3/1_4" function="internal">
        <lane id=":3/1_4_0" index="0" speed="13.90" length="5.00" shape="814.75,81.65 813.39,81.84 812.43,82.43 811.84,83.39 811.65,84.75"/>
    </edge>
    <edge id=":3/1_5" function="internal">
        <lane id=":3/1_5_0" index="0" speed="13.90" length="9.50" shape="814.75,81.65 805.25,81.65"/>
    </edge>
    <edge id=":3/1_6" function="internal">
        <lane id=":3/1_6_0" index="0" speed="13.90" length="10.32" shape="814.75,81.65 811.95,81.25 809.95,80.05 808.75,78.05 808.35,75.25"/>
    </edge>
    <edge id=":3/1_7" function="internal">
        <lane id=":3/1_7_0" index="0" speed="13.90" length="4.82" shape="814.75,81.65 813.51,80.82 813.10,80.00 813.51,79.17 814.75,78.35"/>
    </edge>
    <edge id=":3/1_8" function="internal">
        <lane id=":3/1_8_0" index="0" speed="13.90" length="5.00" shape="811.65,75.25 811.84,76.61 812.42,77.57 813.39,78.16 814.75,78.35"/>
    </edge>
    <edge id=":3/1_9" function="internal">
        <lane id=":3/1_9_0" index="0" speed="13.90" length="9.50" shape="811.65,75.25 811.65,84.75"/>
    </edge>
    <edge id=":3/1_10" function="internal">
        <lane id=":3/1_10_0" index="0" speed="13.90" length="7.14" shape="811.65,75.25 811.25,78.05 810.05,80.05 808.35,81.07"/>
    </edge>
    <edge id=":3/1_11" function="internal">
        <lane id=":3/1_11_0" index="0" speed="13.90" length="2.41" shape="811.65,75.25 810.82,76.49 810.00,76.90"/>
    </edge>
    <edge id=":3/1_18" function="internal">
        <lane id=":3/1_18_0" index="0" speed="13.90" length="3.18" shape="808.35,81.07 808.05,81.25 805.25,81.65"/>
    </edge>
    <edge id=":3/1_19" function="internal">
        <lane id=":3/1_19_0" index="0" speed="13.90" length="2.41" shape="810.00,76.90 809.17,76.49 808.35,75.25"/>
    </edge>
    <edge id=":3/1_12" function="internal">
        <lane id=":3/1_12_0" index="0" speed="13.90" length="5.00" shape="805.25,78.35 806.61,78.16 807.57,77.57 808.16,76.61 808.35,75.25"/>
    </edge>
    <edge id=":3/1_13" function="internal">
        <lane id=":3/1_13_0" index="0" speed="13.90" length="9.50" shape="805.25,78.35 814.75,78.35"/>
    </edge>
    <edge id=":3/1_14" function="internal">
        <lane id=":3/1_14_0" index="0" speed="13.90" length="10.32" shape="805.25,78.35 808.05,78.75 810.05,79.95 811.25,81.95 811.65,84.75"/>
    </edge>
    <edge id=":3/1_15" function="internal">
        <lane id=":3/1_15_0" index="0" speed="13.90" length="4.82" shape="805.25,78.35 806.49,79.18 806.90,80.00 806.49,80.83 805.25,81.65"/>
    </edge>
    <edge id=":3/2_0" function="internal">
        <lane id=":3/2_0_0" index="0" speed="13.90" length="9.50" shape="814.75,161.65 805.25,161.65"/>
    </edge>
    <edge id=":3/2_1" function="internal">
        <lane id=":3/2_1_0" index="0" speed="13.90" length="7.14" shape="814.75,161.65 811.95,161.25 809.95,160.05 808.93,158.35"/>
    </edge>
    <edge id=":3/2_2" function="internal">
        <lane id=":3/2_2_0" index="0" speed="13.90" length="2.41" shape="814.75,161.65 813.51,160.83 813.10,160.00"/>
    </edge>
    <edge id=":3/2_9" function="internal">
        <lane id=":3/2_9_0" index="0" speed="13.90" length="3.18" shape="808.93,158.35 808.75,158.05 808.35,155.25"/>
    </edge>
    <edge id=":3/2_10" function="internal">
        <lane id=":3/2_10_0" index="0" speed="13.90" length="2.41" shape="813.10,160.00 813.51,159.18 814.75,158.35"/>
    </edge>
    <edge id=":3/2_3" function="internal">
        <lane id=":3/2_3_0" index="0" speed="13.90" length="5.00" shape="811.65,155.25 811.84,156.61 812.42,157.57 813.39,158.16 814.75,158.35"/>
    </edge>
    <edge id=":3/2_4" function="internal">
        <lane id=":3/2_4_0" index="0" speed="13.90" length="10.32" shape="811.65,155.25 811.25,158.05 810.05,160.05 808.05,161.25 805.25,161.65"/>
    </edge>
    <edge id=":3/2_5" function="internal">
        <lane id=":3/2_5_0" index="0" speed="13.90" length="4.82" shape="811.65,155.25 810.82,156.49 810.00,156.90 809.17,156.49 808.35,155.25"/>
    </edge>
    <edge id=":3/2_6" function="internal">
        <lane id=":3/2_6_0" index="0" speed="13.90" length="5.00" shape="805.25,158.35 806.61,158.16 807.57,157.57 808.16,156.61 808.35,155.25"/>
    </edge>
    <edge id=":3/2_7" function="internal">
        <lane id=":3/2_7_0" index="0" speed="13.90" length="9.50" shape="805.25,158.35 814.75,158.35"/>
    </edge>
    <edge id=":3/2_8" function="internal">
        <lane id=":3/2_8_0" index="0" speed="13.90" length="2.41" shape="805.25,158.35 806.49,159.17 806.90,160.00"/>
    </edge>
    <edge id=":3/2_11" function="internal">
        <lane id=":3/2_11_0" index="0" speed="13.90" length="2.41" shape="806.90,160.00 806.49,160.82 805.25,161.65"/>
    </edge>
    <edge id=":4/0_0" function="internal">
        <lane id=":4/0_0_0" index="0" speed="13.90" length="5.00" shape="1078.35,4.75 1078.16,3.39 1077.57,2.43 1076.61,1.84 1075.25,1.65"/>
    </edge>
    <edge id=":4/0_1" function="internal">
        <lane id=":4/0_1_0" index="0" speed="13.90" length="10.32" shape="1078.35,4.75 1078.75,1.95 1079.95,-0.05 1081.95,-1.25 1084.75,-1.65"/>
    </edge>
    <edge id=":4/0_2" function="internal">
        <lane id=":4/0_2_0" index="0" speed="13.90" length="4.82" shape="1078.35,4.75 1079.18,3.51 1080.00,3.10 1080.83,3.51 1081.65,4.75"/>
    </edge>
    <edge id=":4/0_3" function="internal">
        <lane id=":4/0_3_0" index="0" speed="13.90" length="5.00" shape="1084.75,1.65 1083.39,1.84 1082.43,2.43 1081.84,3.39 1081.65,4.75"/>
    </edge>
    <edge id=":4/0_4" function="internal">
        <lane id=":4/0_4_0" index="0" speed="13.90" length="9.50" shape="1084.75,1.65 1075.25,1.65"/>
    </edge>
    <edge id=":4/0_5" function="internal">
        <lane id=":4/0_5_0" index="0" speed="13.90" length="2.41" shape="1084.75,1.65 1083.51,0.83 1083.10,0.00"/>
    </edge>
    <edge id=":4/0_9" function="internal">
        <lane id=":4/0_9_0" index="0" speed="13.90" length="2.41" shape="1083.10,0.00 1083.51,-0.82 1084.75,-1.65"/>
    </edge>