<?xml version="1.0" encoding="UTF-8"?>

<!-- generated on 10/12/14 19:24:59 by SUMO netconvert Version 0.21.0
<?xml version="1.0" encoding="UTF-8"?>

<configuration xmlns:xsi="http://www.w3.org/2001/XMLSchema-instance" xsi:noNamespaceSchemaLocation="http://sumo-sim.org/xsd/netconvertConfiguration.xsd">

    <input>
        <osm-files value="f:/VANETProject/Maps/DowntownOrlandoMap.osm"/>
    </input>

    <output>
        <output-file value="DowntownOrlando.net.xml"/>
    </output>

    <projection>
        <proj.utm value="true"/>
    </projection>

</configuration>
-->

<net version="0.13" xmlns:xsi="http://www.w3.org/2001/XMLSchema-instance" xsi:noNamespaceSchemaLocation="http://sumo-sim.org/xsd/net_file.xsd">

    <location netOffset="-462628.64,-3156594.82" convBoundary="0.00,0.00,2943.46,2740.92" origBoundary="-81.382036,28.535611,-81.351941,28.560359" projParameter="+proj=utm +zone=17 +ellps=WGS84 +datum=WGS84 +units=m +no_defs"/>

    <edge id=":1201200159_0" function="internal">
        <lane id=":1201200159_0_0" index="0" speed="22.22" length="0.10" shape="2136.36,1187.90 2136.36,1187.92"/>
    </edge>
    <edge id=":1201200159_1" function="internal">
        <lane id=":1201200159_1_0" index="0" speed="22.22" length="2.41" shape="2136.36,1187.90 2135.54,1189.14 2134.71,1189.55"/>
    </edge>
    <edge id=":1201200159_4" function="internal">
        <lane id=":1201200159_4_0" index="0" speed="22.22" length="2.41" shape="2134.71,1189.55 2133.89,1189.14 2133.06,1187.90"/>
    </edge>
    <edge id=":1201200159_2" function="internal">
        <lane id=":1201200159_2_0" index="0" speed="22.22" length="0.10" shape="2133.06,1187.87 2133.06,1187.90"/>
    </edge>
    <edge id=":1201200159_3" function="internal">
        <lane id=":1201200159_3_0" index="0" speed="22.22" length="2.41" shape="2133.06,1187.87 2133.91,1186.65 2134.74,1186.25"/>
    </edge>
    <edge id=":1201200159_5" function="internal">
        <lane id=":1201200159_5_0" index="0" speed="22.22" length="2.41" shape="2134.74,1186.25 2135.56,1186.67 2136.36,1187.92"/>
    </edge>
    <edge id=":1201200164_0" function="internal">
        <lane id=":1201200164_0_0" index="0" speed="22.22" length="0.10" shape="2136.59,1079.81 2136.59,1079.78"/>
    </edge>
    <edge id=":1201200164_1" function="internal">
        <lane id=":1201200164_1_0" index="0" speed="22.22" length="2.41" shape="2136.59,1079.81 2135.73,1081.03 2134.90,1081.42"/>
    </edge>
    <edge id=":1201200164_4" function="internal">
        <lane id=":1201200164_4_0" index="0" speed="22.22" length="2.41" shape="2134.90,1081.42 2134.08,1080.99 2133.29,1079.73"/>
    </edge>
    <edge id=":1201200164_2" function="internal">
        <lane id=":1201200164_2_0" index="0" speed="22.22" length="0.10" shape="2133.29,1079.74 2133.29,1079.73"/>
    </edge>
    <edge id=":1201200164_3" function="internal">
        <lane id=":1201200164_3_0" index="0" speed="22.22" length="2.41" shape="2133.29,1079.74 2134.13,1078.51 2134.96,1078.11"/>
    </edge>
    <edge id=":1201200164_5" function="internal">
        <lane id=":1201200164_5_0" index="0" speed="22.22" length="2.41" shape="2134.96,1078.11 2135.78,1078.53 2136.59,1079.78"/>
    </edge>
    <edge id=":1201200198_0" function="internal">
        <lane id=":1201200198_0_0" index="0" speed="22.22" length="0.10" shape="2129.85,1872.82 2129.85,1872.84"/>
    </edge>
    <edge id=":1201200198_1" function="internal">
        <lane id=":1201200198_1_0" index="0" speed="22.22" length="2.41" shape="2129.85,1872.82 2129.04,1874.07 2128.22,1874.49"/>
    </edge>
    <edge id=":1201200198_4" function="internal">
        <lane id=":1201200198_4_0" index="0" speed="22.22" length="2.41" shape="2128.22,1874.49 2127.39,1874.08 2126.55,1872.85"/>
    </edge>
    <edge id=":1201200198_2" function="internal">
        <lane id=":1201200198_2_0" index="0" speed="22.22" length="0.10" shape="2126.55,1872.82 2126.55,1872.85"/>
    </edge>
    <edge id=":1201200198_3" function="internal">
        <lane id=":1201200198_3_0" index="0" speed="22.22" length="2.41" shape="2126.55,1872.82 2127.39,1871.59 2128.21,1871.18"/>
    </edge>
    <edge id=":1201200198_5" function="internal">
        <lane id=":1201200198_5_0" index="0" speed="22.22" length="2.41" shape="2128.21,1871.18 2129.04,1871.60 2129.85,1872.84"/>
    </edge>
    <edge id=":1201200223_0" function="internal">
        <lane id=":1201200223_0_0" index="0" speed="22.22" length="4.82" shape="2128.04,2030.17 2127.19,2031.39 2126.36,2031.79 2125.54,2031.37 2124.74,2030.12"/>
    </edge>
    <edge id=":1411749017_0" function="internal">
        <lane id=":1411749017_0_0" index="0" speed="22.22" length="0.10" shape="2068.12,795.92 2068.15,795.93"/>
    </edge>
    <edge id=":1411749017_1" function="internal">
        <lane id=":1411749017_1_0" index="0" speed="22.22" length="2.41" shape="2068.12,795.92 2066.90,795.07 2066.50,794.24"/>
    </edge>
    <edge id=":1411749017_4" function="internal">
        <lane id=":1411749017_4_0" index="0" speed="22.22" length="2.41" shape="2066.50,794.24 2066.94,793.42 2068.19,792.63"/>
    </edge>
    <edge id=":1411749017_2" function="internal">
        <lane id=":1411749017_2_0" index="0" speed="22.22" length="0.10" shape="2068.18,792.63 2068.19,792.63"/>
    </edge>
    <edge id=":1411749017_3" function="internal">
        <lane id=":1411749017_3_0" index="0" speed="22.22" length="2.41" shape="2068.18,792.63 2069.41,793.46 2069.81,794.29"/>
    </edge>
    <edge id=":1411749017_5" function="internal">
        <lane id=":1411749017_5_0" index="0" speed="22.22" length="2.41" shape="2069.81,794.29 2069.39,795.11 2068.15,795.93"/>
    </edge>
    <edge id=":1411749021_0" function="internal">
        <lane id=":1411749021_0_0" index="0" speed="22.22" length="0.10" shape="2184.14,1331.76 2184.13,1331.76"/>
    </edge>
    <edge id=":1411749021_1" function="internal">
        <lane id=":1411749021_1_0" index="0" speed="22.22" length="2.41" shape="2184.14,1331.76 2182.91,1330.93 2182.50,1330.10"/>
    </edge>
    <edge id=":1411749021_4" function="internal">
        <lane id=":1411749021_4_0" index="0" speed="22.22" length="2.41" shape="2182.50,1330.10 2182.92,1329.28 2184.16,1328.46"/>
    </edge>
    <edge id=":1411749021_2" function="internal">
        <lane id=":1411749021_2_0" index="0" speed="22.22" length="0.10" shape="2184.17,1328.46 2184.16,1328.46"/>
    </edge>
    <edge id=":1411749021_3" function="internal">
        <lane id=":1411749021_3_0" index="0" speed="22.22" length="2.41" shape="2184.17,1328.46 2185.40,1329.30 2185.80,1330.13"/>
    </edge>
    <edge id=":1411749021_5" function="internal">
        <lane id=":1411749021_5_0" index="0" speed="22.22" length="2.41" shape="2185.80,1330.13 2185.38,1330.95 2184.13,1331.76"/>
    </edge>
    <edge id=":1411749022_0" function="internal">
        <lane id=":1411749022_0_0" index="0" speed="22.22" length="0.10" shape="2199.88,1331.88 2199.87,1331.88"/>
    </edge>
    <edge id=":1411749022_1" function="internal">
        <lane id=":1411749022_1_0" index="0" speed="22.22" length="2.41" shape="2199.88,1331.88 2198.64,1331.05 2198.23,1330.22"/>
    </edge>
    <edge id=":1411749022_4" function="internal">
        <lane id=":1411749022_4_0" index="0" speed="22.22" length="2.41" shape="2198.23,1330.22 2198.65,1329.40 2199.89,1328.58"/>
    </edge>
    <edge id=":1411749022_2" function="internal">
        <lane id=":1411749022_2_0" index="0" speed="22.22" length="0.10" shape="2199.89,1328.58 2199.89,1328.58"/>
    </edge>
    <edge id=":1411749022_3" function="internal">
        <lane id=":1411749022_3_0" index="0" speed="22.22" length="2.41" shape="2199.89,1328.58 2201.12,1329.41 2201.53,1330.24"/>
    </edge>
    <edge id=":1411749022_5" function="internal">
        <lane id=":1411749022_5_0" index="0" speed="22.22" length="2.41" shape="2201.53,1330.24 2201.11,1331.06 2199.87,1331.88"/>
    </edge>
    <edge id=":1411749024_0" function="internal">
        <lane id=":1411749024_0_0" index="0" speed="22.22" length="4.82" shape="2891.39,1334.85 2892.62,1335.68 2893.03,1336.51 2892.61,1337.33 2891.37,1338.15"/>
    </edge>
    <edge id=":1411916029_0" function="internal">
        <lane id=":1411916029_0_0" index="0" speed="13.89" length="0.10" shape="541.79,807.08 541.79,807.08"/>
    </edge>
    <edge id=":1411916030_0" function="internal">
        <lane id=":1411916030_0_0" index="0" speed="13.89" length="0.10" shape="364.07,815.19 364.07,815.19"/>
    </edge>
    <edge id=":1411916031_0" function="internal">
        <lane id=":1411916031_0_0" index="0" speed="13.89" length="0.10" shape="364.08,850.68 364.08,850.68"/>
    </edge>
    <edge id=":1490643318_0" function="internal">
        <lane id=":1490643318_0_0" index="0" speed="13.41" length="4.82" shape="128.05,1118.62 126.81,1117.80 126.40,1116.98 126.80,1116.15 128.04,1115.32"/>
    </edge>
    <edge id=":1600625358_0" function="internal">
        <lane id=":1600625358_0_0" index="0" speed="22.22" length="4.66" shape="887.62,734.75 882.96,734.66"/>
    </edge>
    <edge id=":1600625358_1" function="internal">
        <lane id=":1600625358_1_0" index="0" speed="22.22" length="2.66" shape="887.62,734.75 886.00,734.47 885.21,733.82"/>
    </edge>
    <edge id=":1600625358_6" function="internal">
        <lane id=":1600625358_6_0" index="0" speed="22.22" length="2.66" shape="885.21,733.82 885.26,732.81 886.14,731.42"/>
    </edge>
    <edge id=":1600625358_2" function="internal">
        <lane id=":1600625358_2_0" index="0" speed="22.22" length="3.12" shape="883.02,731.37 886.14,731.42"/>
    </edge>
    <edge id=":1600625358_3" function="internal">
        <lane id=":1600625358_3_0" index="0" speed="22.22" length="2.41" shape="883.02,731.37 884.24,732.21 884.64,733.04"/>
    </edge>
    <edge id=":1600625358_7" function="internal">
        <lane id=":1600625358_7_0" index="0" speed="22.22" length="2.41" shape="884.64,733.04 884.21,733.86 882.96,734.66"/>
    </edge>
    <edge id=":1600625358_4" function="internal">
        <lane id=":1600625358_4_0" index="0" speed="12.50" length="5.01" shape="885.99,737.83 885.83,736.47 885.27,735.48 884.32,734.88 882.96,734.66"/>
    </edge>
    <edge id=":1600625358_5" function="internal">
        <lane id=":1600625358_5_0" index="0" speed="12.50" length="6.41" shape="885.99,737.83 886.06,735.03 886.11,733.02 886.13,731.82 886.14,731.42"/>
    </edge>
    <edge id=":1600625398_0" function="internal">
        <lane id=":1600625398_0_0" index="0" allow="pedestrian" speed="2.78" length="9.71" shape="886.76,769.64 890.11,770.32 891.51,770.00 890.98,768.66 888.50,766.31"/>
    </edge>
    <edge id=":1600625398_1" function="internal">
        <lane id=":1600625398_1_0" index="0" allow="pedestrian" speed="2.78" length="10.71" shape="886.76,769.64 889.75,770.42 891.96,770.97 894.14,771.61 897.04,772.65"/>
    </edge>
    <edge id=":1600625459_0" function="internal">
        <lane id=":1600625459_0_0" index="0" allow="pedestrian" speed="2.78" length="5.00" shape="608.20,868.10 608.38,869.46 608.96,870.43 609.92,871.02 611.28,871.22"/>
    </edge>
    <edge id=":1600625459_1" function="internal">
        <lane id=":1600625459_1_0" index="0" allow="pedestrian" speed="2.78" length="6.20" shape="608.20,868.10 608.14,874.30"/>
    </edge>
    <edge id=":1600625461_0" function="internal">
        <lane id=":1600625461_0_0" index="0" allow="pedestrian" speed="2.78" length="1.36" shape="627.15,871.34 627.50,871.30 627.82,871.20 628.10,871.04 628.36,870.80"/>
    </edge>
    <edge id=":1600625470_0" function="internal">
        <lane id=":1600625470_0_0" index="0" allow="pedestrian" speed="2.78" length="5.02" shape="607.90,900.45 608.08,901.80 608.66,902.78 609.63,903.38 610.99,903.60"/>
    </edge>
    <edge id=":1600625470_1" function="internal">
        <lane id=":1600625470_1_0" index="0" allow="pedestrian" speed="2.78" length="6.20" shape="607.90,900.45 607.84,906.65"/>
    </edge>
    <edge id=":1600625473_0" function="internal">
        <lane id=":1600625473_0_0" index="0" allow="pedestrian" speed="2.78" length="4.20" shape="617.75,903.74 619.04,903.93 619.67,904.43 619.65,905.23 618.97,906.34"/>
    </edge>
    <edge id=":1600625549_0" function="internal">
        <lane id=":1600625549_0_0" index="0" allow="pedestrian" speed="2.78" length="6.20" shape="1119.60,978.45 1119.64,972.25"/>
    </edge>
    <edge id=":1600625549_1" function="internal">
        <lane id=":1600625549_1_0" index="0" allow="pedestrian" speed="2.78" length="5.00" shape="1119.60,978.45 1119.80,977.09 1120.39,976.13 1121.36,975.55 1122.72,975.37"/>
    </edge>
    <edge id=":1600625553_0" function="internal">
        <lane id=":1600625553_0_0" index="0" speed="13.89" length="6.20" shape="1184.22,972.70 1184.13,978.90"/>
    </edge>
    <edge id=":1600625553_1" function="internal">
        <lane id=":1600625553_1_0" index="0" speed="13.89" length="2.41" shape="1184.22,972.70 1183.38,973.93 1182.55,974.33"/>
    </edge>
    <edge id=":1600625553_6" function="internal">
        <lane id=":1600625553_6_0" index="0" speed="13.89" length="2.41" shape="1182.55,974.33 1181.73,973.90 1180.92,972.65"/>
    </edge>
    <edge id=":1600625553_2" function="internal">
        <lane id=":1600625553_2_0" index="0" speed="8.33" length="5.01" shape="1177.76,975.72 1179.13,975.54 1180.11,974.96 1180.71,974.00 1180.92,972.65"/>
    </edge>
    <edge id=":1600625553_3" function="internal">
        <lane id=":1600625553_3_0" index="0" speed="8.33" length="7.87" shape="1177.76,975.72 1180.56,975.93 1182.56,976.54 1183.75,977.52 1184.13,978.90"/>
    </edge>
    <edge id=":1600625553_4" function="internal">
        <lane id=":1600625553_4_0" index="0" speed="13.89" length="6.20" shape="1180.83,978.85 1180.92,972.65"/>
    </edge>
    <edge id=":1600625553_5" function="internal">
        <lane id=":1600625553_5_0" index="0" speed="13.89" length="2.41" shape="1180.83,978.85 1181.67,977.63 1182.50,977.23"/>
    </edge>
    <edge id=":1600625553_7" function="internal">
        <lane id=":1600625553_7_0" index="0" speed="13.89" length="2.41" shape="1182.50,977.23 1183.32,977.65 1184.13,978.90"/>
    </edge>
    <edge id=":1600625624_0" function="internal">
        <lane id=":1600625624_0_0" index="0" allow="pedestrian" speed="2.78" length="5.96" shape="1127.49,1024.53 1131.10,1019.79"/>
    </edge>
    <edge id=":1600625624_1" function="internal">
        <lane id=":1600625624_1_0" index="0" allow="pedestrian" speed="2.78" length="5.23" shape="1127.49,1024.53 1128.47,1023.77 1129.61,1023.43 1130.89,1023.51 1132.33,1024.00"/>
    </edge>
    <edge id=":1600625627_0" function="internal">
        <lane id=":1600625627_0_0" index="0" speed="13.89" length="6.20" shape="1183.50,1021.25 1183.41,1027.45"/>
    </edge>
    <edge id=":1600625627_1" function="internal">
        <lane id=":1600625627_1_0" index="0" speed="13.89" length="2.41" shape="1183.50,1021.25 1182.65,1022.48 1181.82,1022.88"/>
    </edge>
    <edge id=":1600625627_6" function="internal">
        <lane id=":1600625627_6_0" index="0" speed="13.89" length="2.41" shape="1181.82,1022.88 1181.00,1022.45 1180.20,1021.20"/>
    </edge>
    <edge id=":1600625627_2" function="internal">
        <lane id=":1600625627_2_0" index="0" speed="8.33" length="5.05" shape="1176.99,1024.31 1178.38,1024.09 1179.37,1023.50 1179.98,1022.54 1180.20,1021.20"/>
    </edge>
    <edge id=":1600625627_3" function="internal">
        <lane id=":1600625627_3_0" index="0" speed="8.33" length="7.95" shape="1176.99,1024.31 1179.82,1024.46 1181.83,1025.03 1183.02,1026.03 1183.41,1027.45"/>
    </edge>
    <edge id=":1600625627_4" function="internal">
        <lane id=":1600625627_4_0" index="0" speed="13.89" length="6.20" shape="1180.11,1027.41 1180.20,1021.20"/>
    </edge>
    <edge id=":1600625627_5" function="internal">
        <lane id=":1600625627_5_0" index="0" speed="13.89" length="2.41" shape="1180.11,1027.41 1180.95,1026.18 1181.78,1025.78"/>
    </edge>
    <edge id=":1600625627_7" function="internal">
        <lane id=":1600625627_7_0" index="0" speed="13.89" length="2.41" shape="1181.78,1025.78 1182.60,1026.20 1183.41,1027.45"/>
    </edge>
    <edge id=":1600625681_0" function="internal">
        <lane id=":1600625681_0_0" index="0" allow="pedestrian" speed="2.78" length="5.39" shape="1096.74,1050.26 1095.95,1048.93 1095.87,1047.78 1096.49,1046.82 1097.83,1046.04"/>
    </edge>
    <edge id=":1600625681_1" function="internal">
        <lane id=":1600625681_1_0" index="0" allow="pedestrian" speed="2.78" length="6.25" shape="1091.97,1048.21 1097.83,1046.04"/>
    </edge>
    <edge id=":1600625939_0" function="internal">
        <lane id=":1600625939_0_0" index="0" speed="15.65" length="5.26" shape="1124.07,1124.43 1118.72,1124.42"/>
        <lane id=":1600625939_0_1" index="1" speed="15.65" length="5.26" shape="1123.95,1121.13 1118.78,1121.12"/>
    </edge>
    <edge id=":1600625939_2" function="internal">
        <lane id=":1600625939_2_0" index="0" allow="pedestrian" speed="9.21" length="3.69" shape="1123.95,1121.13 1123.26,1120.54 1122.69,1118.72 1122.57,1117.86"/>
    </edge>
    <edge id=":1600625939_3" function="internal">
        <lane id=":1600625939_3_0" index="0" speed="15.65" length="2.48" shape="1123.95,1121.13 1122.51,1120.65 1121.87,1119.94"/>
    </edge>
    <edge id=":1600625939_8" function="internal">
        <lane id=":1600625939_8_0" index="0" speed="9.21" length="6.51" shape="1122.57,1117.86 1122.26,1115.66 1121.96,1111.38"/>
    </edge>
    <edge id=":1600625939_9" function="internal">
        <lane id=":1600625939_9_0" index="0" speed="15.65" length="2.48" shape="1121.87,1119.94 1122.06,1119.01 1123.06,1117.86"/>
    </edge>
    <edge id=":1600625939_4" function="internal">
        <lane id=":1600625939_4_0" index="0" allow="pedestrian" speed="9.21" length="5.08" shape="1118.90,1114.52 1120.30,1114.35 1121.27,1113.77 1121.83,1112.78 1121.96,1111.38"/>
    </edge>
    <edge id=":1600625939_5" function="internal">
        <lane id=":1600625939_5_0" index="0" speed="15.65" length="4.13" shape="1118.90,1114.52 1122.95,1114.56"/>
        <lane id=":1600625939_5_1" index="1" speed="15.65" length="4.13" shape="1118.84,1117.82 1123.06,1117.86"/>
    </edge>
    <edge id=":1600625939_7" function="internal">
        <lane id=":1600625939_7_0" index="0" speed="15.65" length="2.41" shape="1118.84,1117.82 1120.07,1118.67 1120.46,1119.50"/>
    </edge>
    <edge id=":1600625939_10" function="internal">
        <lane id=":1600625939_10_0" index="0" speed="15.65" length="2.41" shape="1120.46,1119.50 1120.04,1120.32 1118.78,1121.12"/>
    </edge>
    <edge id=":1696237322_0" function="internal">
        <lane id=":1696237322_0_0" index="0" speed="13.89" length="4.82" shape="2824.17,1737.70 2825.40,1738.54 2825.80,1739.37 2825.37,1740.19 2824.12,1741.00"/>
    </edge>
    <edge id=":1697826264_0" function="internal">
        <lane id=":1697826264_0_0" index="0" speed="22.22" length="4.82" shape="125.46,1320.21 124.23,1319.38 123.82,1318.56 124.23,1317.73 125.48,1316.91"/>
    </edge>
    <edge id=":1700923405_0" function="internal">
        <lane id=":1700923405_0_0" index="0" speed="13.89" length="0.10" shape="1987.80,1030.75 1987.80,1030.75"/>
    </edge>
    <edge id=":1700923405_1" function="internal">
        <lane id=":1700923405_1_0" index="0" speed="13.89" length="2.41" shape="1987.80,1030.75 1986.57,1029.91 1986.16,1029.09"/>
    </edge>
    <edge id=":1700923405_4" function="internal">
        <lane id=":1700923405_4_0" index="0" speed="13.89" length="2.41" shape="1986.16,1029.09 1986.58,1028.26 1987.82,1027.45"/>
    </edge>
    <edge id=":1700923405_2" function="internal">
        <lane id=":1700923405_2_0" index="0" speed="13.89" length="0.10" shape="1987.82,1027.45 1987.82,1027.45"/>
    </edge>
    <edge id=":1700923405_3" function="internal">
        <lane id=":1700923405_3_0" index="0" speed="13.89" length="2.41" shape="1987.82,1027.45 1989.05,1028.28 1989.46,1029.11"/>
    </edge>
    <edge id=":1700923405_5" function="internal">
        <lane id=":1700923405_5_0" index="0" speed="13.89" length="2.41" shape="1989.46,1029.11 1989.04,1029.93 1987.80,1030.75"/>
    </edge>
    <edge id=":1700923413_0" function="internal">
        <lane id=":1700923413_0_0" index="0" speed="13.89" length="0.10" shape="2055.18,1031.14 2055.19,1031.14"/>
    </edge>
    <edge id=":1700923413_1" function="internal">
        <lane id=":1700923413_1_0" index="0" speed="13.89" length="2.41" shape="2055.18,1031.14 2053.95,1030.31 2053.55,1029.48"/>
    </edge>
    <edge id=":1700923413_4" function="internal">
        <lane id=":1700923413_4_0" index="0" speed="13.89" length="2.41" shape="2053.55,1029.48 2053.96,1028.66 2055.21,1027.84"/>
    </edge>
    <edge id=":1700923413_2" function="internal">
        <lane id=":1700923413_2_0" index="0" speed="13.89" length="0.10" shape="2055.21,1027.84 2055.21,1027.84"/>
    </edge>
    <edge id=":1700923413_3" function="internal">
        <lane id=":1700923413_3_0" index="0" speed="13.89" length="2.41" shape="2055.21,1027.84 2056.44,1028.67 2056.85,1029.50"/>
    </edge>
    <edge id=":1700923413_5" function="internal">
        <lane id=":1700923413_5_0" index="0" speed="13.89" length="2.41" shape="2056.85,1029.50 2056.43,1030.32 2055.19,1031.14"/>
    </edge>
    <edge id=":1700923416_0" function="internal">
        <lane id=":1700923416_0_0" index="0" speed="13.89" length="0.10" shape="2064.48,1031.20 2064.48,1031.20"/>
    </edge>
    <edge id=":1700923416_1" function="internal">
        <lane id=":1700923416_1_0" index="0" speed="13.89" length="2.41" shape="2064.48,1031.20 2063.25,1030.37 2062.84,1029.54"/>
    </edge>
    <edge id=":1700923416_4" function="internal">
        <lane id=":1700923416_4_0" index="0" speed="13.89" length="2.41" shape="2062.84,1029.54 2063.26,1028.72 2064.50,1027.90"/>
    </edge>
    <edge id=":1700923416_2" function="internal">
        <lane id=":1700923416_2_0" index="0" speed="13.89" length="0.10" shape="2064.50,1027.90 2064.50,1027.90"/>
    </edge>
    <edge id=":1700923416_3" function="internal">
        <lane id=":1700923416_3_0" index="0" speed="13.89" length="2.41" shape="2064.50,1027.90 2065.73,1028.73 2066.14,1029.56"/>
    </edge>
    <edge id=":1700923416_5" function="internal">
        <lane id=":1700923416_5_0" index="0" speed="13.89" length="2.41" shape="2066.14,1029.56 2065.72,1030.38 2064.48,1031.20"/>
    </edge>
    <edge id=":1700923447_0" function="internal">
        <lane id=":1700923447_0_0" index="0" speed="13.89" length="0.10" shape="2079.84,1031.29 2079.84,1031.29"/>
    </edge>
    <edge id=":1700923447_1" function="internal">
        <lane id=":1700923447_1_0" index="0" speed="13.89" length="2.41" shape="2079.84,1031.29 2078.61,1030.46 2078.20,1029.63"/>
    </edge>
    <edge id=":1700923447_4" function="internal">
        <lane id=":1700923447_4_0" index="0" speed="13.89" length="2.41" shape="2078.20,1029.63 2078.62,1028.81 2079.86,1027.99"/>
    </edge>
    <edge id=":1700923447_2" function="internal">
        <lane id=":1700923447_2_0" index="0" speed="13.89" length="0.10" shape="2079.86,1027.99 2079.86,1027.99"/>
    </edge>
    <edge id=":1700923447_3" function="internal">
        <lane id=":1700923447_3_0" index="0" speed="13.89" length="2.41" shape="2079.86,1027.99 2081.09,1028.82 2081.50,1029.65"/>
    </edge>
    <edge id=":1700923447_5" function="internal">
        <lane id=":1700923447_5_0" index="0" speed="13.89" length="2.41" shape="2081.50,1029.65 2081.08,1030.47 2079.84,1031.29"/>
    </edge>
    <edge id=":1700923449_0" function="internal">
        <lane id=":1700923449_0_0" index="0" speed="13.89" length="0.10" shape="2182.12,1031.46 2182.12,1031.46"/>
    </edge>
    <edge id=":1700923449_1" function="internal">
        <lane id=":1700923449_1_0" index="0" speed="13.89" length="2.41" shape="2182.12,1031.46 2180.88,1030.64 2180.47,1029.81"/>
    </edge>
    <edge id=":1700923449_4" function="internal">
        <lane id=":1700923449_4_0" index="0" speed="13.89" length="2.41" shape="2180.47,1029.81 2180.87,1028.99 2182.11,1028.16"/>
    </edge>
    <edge id=":1700923449_2" function="internal">
        <lane id=":1700923449_2_0" index="0" speed="13.89" length="0.10" shape="2182.11,1028.16 2182.11,1028.16"/>
    </edge>
    <edge id=":1700923449_3" function="internal">
        <lane id=":1700923449_3_0" index="0" speed="13.89" length="2.41" shape="2182.11,1028.16 2183.35,1028.98 2183.77,1029.80"/>
    </edge>
    <edge id=":1700923449_5" function="internal">
        <lane id=":1700923449_5_0" index="0" speed="13.89" length="2.41" shape="2183.77,1029.80 2183.36,1030.63 2182.12,1031.46"/>
    </edge>
    <edge id=":1700923451_0" function="internal">
        <lane id=":1700923451_0_0" index="0" speed="13.89" length="0.10" shape="2162.48,1031.53 2162.48,1031.53"/>
    </edge>
    <edge id=":1700923451_1" function="internal">
        <lane id=":1700923451_1_0" index="0" speed="13.89" length="2.41" shape="2162.48,1031.53 2161.24,1030.71 2160.82,1029.88"/>
    </edge>
    <edge id=":1700923451_4" function="internal">
        <lane id=":1700923451_4_0" index="0" speed="13.89" length="2.41" shape="2160.82,1029.88 2161.23,1029.06 2162.47,1028.23"/>
    </edge>
    <edge id=":1700923451_2" function="internal">
        <lane id=":1700923451_2_0" index="0" speed="13.89" length="0.10" shape="2162.47,1028.23 2162.47,1028.23"/>
    </edge>
    <edge id=":1700923451_3" function="internal">
        <lane id=":1700923451_3_0" index="0" speed="13.89" length="2.41" shape="2162.47,1028.23 2163.71,1029.05 2164.12,1029.87"/>
    </edge>
    <edge id=":1700923451_5" function="internal">
        <lane id=":1700923451_5_0" index="0" speed="13.89" length="2.41" shape="2164.12,1029.87 2163.71,1030.70 2162.48,1031.53"/>
    </edge>
    <edge id=":1700923521_0" function="internal">
        <lane id=":1700923521_0_0" index="0" speed="13.89" length="4.82" shape="1317.67,1994.56 1316.85,1995.80 1316.03,1996.22 1315.20,1995.82 1314.37,1994.59"/>
    </edge>
    <edge id=":2191985741_0" function="internal">
        <lane id=":2191985741_0_0" index="0" speed="17.88" length="6.25" shape="256.02,1944.03 250.21,1944.93"/>
        <lane id=":2191985741_0_1" index="1" speed="17.88" length="6.25" shape="256.05,1940.73 249.50,1941.71"/>
    </edge>
    <edge id=":2191985741_2" function="internal">
        <lane id=":2191985741_2_0" index="0" speed="17.88" length="2.41" shape="256.05,1940.73 254.82,1939.89 254.42,1939.06"/>
    </edge>
    <edge id=":2191985741_6" function="internal">
        <lane id=":2191985741_6_0" index="0" speed="17.88" length="2.41" shape="254.42,1939.06 254.84,1938.24 256.09,1937.43"/>
    </edge>
    <edge id=":2191985741_3" function="internal">
        <lane id=":2191985741_3_0" index="0" speed="17.88" length="13.04" shape="243.38,1933.97 247.16,1933.91 249.75,1933.96 252.34,1934.05 256.12,1934.13"/>
        <lane id=":2191985741_3_1" index="1" speed="17.88" length="13.04" shape="243.38,1933.97 247.21,1934.42 249.73,1935.60 252.25,1936.83 256.09,1937.43"/>
    </edge>
    <edge id=":2191985741_5" function="internal">
        <lane id=":2191985741_5_0" index="0" speed="17.88" length="27.84" shape="242.88,1937.28 254.64,1937.24 259.66,1937.97 257.95,1939.46 249.50,1941.71"/>
    </edge>
    <edge id=":2204106786_0" function="internal">
        <lane id=":2204106786_0_0" index="0" speed="13.89" length="6.45" shape="1187.22,745.80 1187.14,752.25"/>
    </edge>
    <edge id=":2204106786_1" function="internal">
        <lane id=":2204106786_1_0" index="0" speed="13.89" length="2.41" shape="1187.22,745.80 1186.38,747.03 1185.55,747.43"/>
    </edge>
    <edge id=":2204106786_6" function="internal">
        <lane id=":2204106786_6_0" index="0" speed="13.89" length="2.41" shape="1185.55,747.43 1184.73,747.01 1183.92,745.76"/>
    </edge>
    <edge id=":2204106786_2" function="internal">
        <lane id=":2204106786_2_0" index="0" speed="8.33" length="5.72" shape="1180.29,749.73 1181.87,748.96 1183.00,748.05 1183.68,746.98 1183.92,745.76"/>
    </edge>
    <edge id=":2204106786_3" function="internal">
        <lane id=":2204106786_3_0" index="0" speed="8.33" length="9.13" shape="1180.29,749.73 1183.31,748.89 1185.46,749.03 1186.74,750.15 1187.14,752.25"/>
    </edge>
    <edge id=":2204106786_4" function="internal">
        <lane id=":2204106786_4_0" index="0" speed="13.89" length="6.45" shape="1183.84,752.21 1183.92,745.76"/>
    </edge>
    <edge id=":2204106786_5" function="internal">
        <lane id=":2204106786_5_0" index="0" speed="13.89" length="2.41" shape="1183.84,752.21 1184.68,750.98 1185.51,750.58"/>
    </edge>
    <edge id=":2204106786_7" function="internal">
        <lane id=":2204106786_7_0" index="0" speed="13.89" length="2.41" shape="1185.51,750.58 1186.33,751.00 1187.14,752.25"/>
    </edge>
    <edge id=":2206644368_0" function="internal">
        <lane id=":2206644368_0_0" index="0" speed="13.89" length="0.10" shape="1610.99,479.22 1610.99,479.22"/>
    </edge>
    <edge id=":2206644368_1" function="internal">
        <lane id=":2206644368_1_0" index="0" speed="13.89" length="2.41" shape="1610.99,479.22 1609.75,478.40 1609.34,477.57"/>
    </edge>
    <edge id=":2206644368_4" function="internal">
        <lane id=":2206644368_4_0" index="0" speed="13.89" length="2.41" shape="1609.34,477.57 1609.75,476.75 1610.99,475.92"/>
    </edge>
    <edge id=":2206644368_2" function="internal">
        <lane id=":2206644368_2_0" index="0" speed="13.89" length="0.10" shape="1610.99,475.92 1610.99,475.92"/>
    </edge>
    <edge id=":2206644368_3" function="internal">
        <lane id=":2206644368_3_0" index="0" speed="13.89" length="2.41" shape="1610.99,475.92 1612.23,476.74 1612.64,477.57"/>
    </edge>
    <edge id=":2206644368_5" function="internal">
        <lane id=":2206644368_5_0" index="0" speed="13.89" length="2.41" shape="1612.64,477.57 1612.23,478.39 1610.99,479.22"/>
    </edge>