<?xml version="1.0" encoding="UTF-8"?>

<!-- generated on 10/12/14 19:55:46 by SUMO duarouter Version 0.21.0
<?xml version="1.0" encoding="UTF-8"?>

<configuration xmlns:xsi="http://www.w3.org/2001/XMLSchema-instance" xsi:noNamespaceSchemaLocation="http://sumo-sim.org/xsd/duarouterConfiguration.xsd">

    <input>
        <net-file value="DowntownOrlando.net.xml"/>
        <trip-files value="DowntownOrlando.trips.xml"/>
    </input>

    <output>
        <output-file value="DowntownOrlando.rou.xml"/>
    </output>

</configuration>
-->

<routes xmlns:xsi="http://www.w3.org/2001/XMLSchema-instance" xsi:noNamespaceSchemaLocation="http://sumo-sim.org/xsd/routes_file.xsd">
    <vehicle id="1" depart="0.00">
        <route edges="-75459746#2 -75459746#1 210585004 210585006"/>
    </vehicle>
    <vehicle id="2" depart="2.00">
        <route edges="-157403419 -73538104 -127588487 73540480#0 73540480#1 73540480#2 104081861#0 104081861#1 104081868#0 104081868#1 -53848099#1 -53848099#0 -53848098#1 43990411#2 43990411#3 43990411#4 -43990411#4"/>
    </vehicle>
    <vehicle id="3" depart="3.00">
        <route edges="44035168#13 44035168#14 44035168#15 11193647#7 11193647#8 11193647#9 11193647#10 215671208#0 215671208#1 215671208#2 51064594#0 51064594#1 43990508#0 43990508#1 43990508#2 43990508#3 43990508#4 80659133#2 80659133#3 49847026 73538109#0 73538109#1 73538102 215671204#0 215671204#1 53848098#0 53848098#1 53848099#0 53848099#1 -104081868#1 -104081868#0 -104081861#1 -156772091#2"/>
    </vehicle>
    <vehicle id="4" depart="4.00">
        <route edges="43990457#2 -43990457#2 -43990457#1 -43990457#0 -11180285#3 -11189528#1 -11189528#0 49847026 -11193557#4 -11193557#3 -11193557#2 -11193557#1 50970000"/>
    </vehicle>
    <vehicle id="5" depart="5.00">
        <route edges="-11196142#1 -11196142#0 43990508#2 43990508#3 43990508#4 80659133#2 80659133#3 49847026 73538109#0 73538109#1 73538102 -213546066"/>
    </vehicle>
    <vehicle id="6" depart="6.00">
        <route edges="210585005 -210584958#0 -127588518#0 -127588523 -127588520 -53848099#1 -53848099#0 -53848098#1 -53848098#0 -215671204#1 -215671204#0 -213546066 -213546063#1 -213546063#0 -73540500#4 -73540500#3 -73540500#2 -73540500#1 -73540500#0 215359981#0 215359981#1 215359982 215486792#0 215486792#1 67523969"/>
    </vehicle>
    <vehicle id="7" depart="7.00">
        <route edges="-73538114 -11192348#3 215885158#3"/>
    </vehicle>
    <vehicle id="8" depart="8.00">
        <route edges="53848098#0 -53848098#0 -215671204#1 -215671204#0 -213546066 -213546063#1 -213546063#0 -73540500#4 -73540500#3 -73540500#2 -73540500#1 -73540500#0 215359981#0 215359981#1 215359982 215486792#0 215486793#0"/>
    </vehicle>
    <vehicle id="9" depart="9.00">
        <route edges="-215359983#2 73540500#1 73540500#2 73540500#3 73540500#4 213546063#0 213546063#1 213546066 -73538102 -73538109#1 -73538109#0 -11193557#4 -11193557#3 -11193557#2 -11193557#1 -11193557#0 -47026378#1 47026378#1"/>
    </vehicle>
    <vehicle id="10" depart="10.00">
        <route edges="67567288#1 11185558#1 -215671204#0 -73538102 -73538109#1 -73538109#0 -49847026 -80659133#3 -80659133#2 -80659133#1 -80659133#0 80659106#0 80659106#1 80659106#2 80659106#3 80659106#4 80659106#5 80659106#6 80659106#7 80659106#8 80664414#0 80664414#1 80664414#2 80664414#3 80664414#4 80664414#5 80664414#6 80664414#7 80664413 -11204339#7 50783068#8"/>
    </vehicle>
    <vehicle id="11" depart="11.00">
        <route edges="-73538117#1 -43990411#3 -43990411#2 -53848098#0 -215671204#1 -215671204#0 -73538102 -73538109#1 -73538109#0 -49847026 -80659133#3 -80659133#2 -80659133#1 -80659133#0 80659106#0 80659106#1 80659106#2 80659106#3 80659106#4 80659106#5 77431190#0 77431190#1 77431190#2 77431190#3 77431190#4 77431190#5 -77431191#1"/>
    </vehicle>
    <vehicle id="12" depart="12.00">
        <route edges="196818520 -104081862#0 -75459746#6 -75459746#5 -75459746#4 -75459746#3 -75459746#2 -75459746#1 -75459746#0 -104081868#1 -104081868#0 -104081861#1 -104081861#0 -73540480#2 -73540480#1 -73540480#0 -127588488 -127588489#2 -127588489#1 -127588489#0 -213546019#5 -213546019#4 -213546019#3 -213546019#2 11203462#2 213546036"/>
    </vehicle>
    <vehicle id="13" depart="13.00">
        <route edges="-11202784 -215795020#1 -73538121#0 -73538109#1 -11183171#1 -11183171#0"/>
    </vehicle>
    <vehicle id="14" depart="14.00">
        <route edges="11176209 215486794#0 -43990457#2 -43990457#1 -43990457#0 -11180285#3 -11189528#1 -11189528#0 -80659133#3 -80659133#2 -80659133#1 -80659133#0 80659106#0 80659106#1 210328292#6 210328292#7 75259994#3 75259994#4 75259994#5 75259994#6 75259994#7 75259994#8 11193647#5 11193647#6 11193647#7 11193647#8 11193647#9 11193647#10 11179409#4 11179409#5 11179409#6 47026379 -11197189#9 -11197189#8 -11197189#7 -11197189#6 -11197189#5 -11197189#4 -11197189#3 -11197189#2 -11197189#1 -11197189#0 47528851#1 47528851#2 -11182195#1 -11182195#0"/>
    </vehicle>
    <vehicle id="15" depart="15.00">
        <route edges="213546028 47026380#1 80659128#0 80659128#1 80659128#2 80659128#3 80659128#4 80659128#5 80664414#0 80664414#1 80664414#2 80664414#3 80664414#4 80664414#5 80664414#6 80664414#7 80664413 47528851#0 11199161#0 50783070#13"/>
    </vehicle>
    <vehicle id="16" depart="16.00">
        <route edges="11188650 -43990457#0 -11180285#3 -11189528#1 -11189528#0 49847026 73538109#0 73538109#1 73538102 215671214#0 215671214#1 213546067 73541769#1 73541769#2 -73542488 -11196649 11185663#0 11185663#1"/>
    </vehicle>
    <vehicle id="17" depart="17.00">
        <route edges="44034544 196818520 -104081862#0 -75459746#6 -75459746#5 -75459746#4 -75459746#3 -75459746#2 -75459746#1 -75459746#0 -104081868#1 -104081868#0 -104081861#1 -104081861#0 -73540480#2 -73540480#1 -73540480#0 -127588488 -127588489#2 -127588489#1 -127588489#0 -213546019#5 -213546019#4 215795049#0 215795049#1"/>
    </vehicle>
    <vehicle id="18" depart="18.00">
        <route edges="49847026 73538109#0 73538109#1 73538102 215671214#0 215671214#1 213546067 215885170 215885168 215885167 215885169 215885171 215885166 213546060 210328288 213546019#0 11179939#0"/>
    </vehicle>
    <vehicle id="19" depart="19.00">
        <route edges="67571408 73540498#4 73538114 210328288 213546019#0 213546019#1 11203462#2 213546036 210585021"/>
    </vehicle>
    <vehicle id="20" depart="20.00">
        <route edges="50783091#8 -49846076#5 44035168#10 44035168#11 11197189#7 11197189#8 11197189#9 11197189#10 11197189#11 11197189#12 215795047#5 215795047#6 51064594#0 51064594#1 43990508#0 43990508#1 43990508#2 43990508#3 43990508#4 80659133#2 80659133#3 49847026 -73538119#4 -73538119#3 -73538119#2 -73538119#1 -213546022#2"/>
    </vehicle>
    <vehicle id="21" depart="21.00">
        <route edges="11192207#1 11203589#0 11203589#1 67596637 67596638 213546030 49846076#2 49846076#3 49846076#4 49846076#5 49846076#6 49846076#7 49846076#8 49846076#9 49846076#10 11176415#0"/>
    </vehicle>
    <vehicle id="22" depart="22.00">
        <route edges="-213546019#3 213546019#3 213546019#4 213546019#5 127588489#0 127588489#1 127588489#2 127588488 73540480#0 73540480#1 73540480#2 104081861#0 104081861#1 104081868#0 104081868#1 127588520 127588523 127588518#0 -127588518#0"/>
    </vehicle>
    <vehicle id="23" depart="23.00">
        <route edges="-11204339#1 -11204339#0 -11179409#6 -11179409#5 -11179409#4 215671208#0 215671208#1 215671208#2 51064594#0 51064594#1 43990508#0 43990508#1 43990508#2 43990508#3 43990508#4 80659133#2 80659133#3 49847026 73538109#0 73538109#1 73538102 215671204#0 215671204#1 53848098#0 53848098#1 53848099#0 213579727#0 213579727#1 -213579727#1"/>
    </vehicle>
    <vehicle id="24" depart="24.00">
        <route edges="-140210324 140210324 47026380#0 47026380#1 80659128#0 80659128#1 80659128#2 80659128#3 80659128#4 80659128#5 80664414#0 80664414#1 80664414#2 80664414#3 80664414#4 80664414#5 80664414#6 80664414#7 80664413 47528851#0 47528851#1 47528851#2 11192510#0 11192510#1 49846076#0 49846076#1 49846076#2 49846076#3 49846076#4 49846076#5 49846076#6 49846076#7 49846076#8 50969827#6 50969827#7 146831005 67571406#0"/>
    </vehicle>
    <vehicle id="25" depart="25.00">
        <route edges="-215885102#0 -215671204#0 -73538102 -73538109#1 -73538109#0 -11193557#4 -11193557#3 -11193557#2 -11193557#1 -11193557#0"/>
    </vehicle>
    <vehicle id="26" depart="26.00">
        <route edges="-11203462#1 -215795058#1 -215795058#0 -215885169 -215885167 -215885168 -215885170 -73541769#0 -73541792 -47026378#4 -47026378#3 -47026378#2 -47026378#1 -47026378#0 51064594#0 51064594#1 47026377#0 50783086#4 50970301#0 50970301#1"/>
    </vehicle>
    <vehicle id="27" depart="27.00">
        <route edges="67567288#0 -215671214#0 -213546066 -213546063#1 -213546063#0 73538113#1"/>
    </vehicle>
    <vehicle id="28" depart="28.00">
        <route edges="-69539618 -75459767 75459743 -215795051#7 -73540480#0 -127588488 -127588489#2 -127588489#1 -127588489#0 -213546019#5 -213546019#4 -213546019#3 -213546019#2 -213546019#1 -213546019#0 -210328288 -73538114 -80776637 -49846076#11 -49846076#10 -49846076#9 -49846076#8 -49846076#7 -49846076#6 -49846076#5 -49846076#4 -49846076#3 -49846076#2 -49846076#1 -49846076#0 -11192510#1 -11192510#0 -11182195#1 -11182195#0"/>
    </vehicle>
    <vehicle id="29" depart="29.00">
        <route edges="215671211#1 -53848099#0 -53848098#1 -53848098#0 -215671204#1 -215671204#0 -213546066 -213546063#1 -213546063#0 -73540500#4 -73540500#3 -73540500#2 -73540500#1 -73540500#0 215359981#0 215359981#1 215359982 215486792#0 -215486792#0"/>
    </vehicle>
    <vehicle id="30" depart="30.00">
        <route edges="80671015#0 80671015#1 11193647#9 11193647#10 215671208#0 215671208#1 215671208#2 51064594#0 51064594#1 43990508#0 43990508#1 43990508#2 43990508#3 43990508#4 80659133#2 80659133#3 49847026 73538109#0 73538109#1 73538102 215671204#0 215671204#1 53848098#0 53848098#1 53848099#0 53848099#1 127588520 127588523 127588518#0 210584958#0 210584958#1 156772057#1"/>
    </vehicle>
    <vehicle id="31" depart="31.00">
        <route edges="50971128#0 50971128#1 50971128#2 44035168#6 44035168#7 44035168#8 44035168#9 49846076#5 49846076#6 49846076#7 49846076#8 49846076#9 49846076#10 49846076#11 80776637 73538114 -213546060 -215885166 -215885171 -215885169 -215885167 -215885168 -215885170 -213546067 -215671214#1 -215671214#0 215671204#0 215671204#1 53848098#0 53848098#1 53848099#0 213579727#0 213579727#1 -73538117#2 11197290#0 11197290#1 11197290#2 213579726"/>
    </vehicle>
    <vehicle id="32" depart="32.00">
        <route edges="-11184651#1 -11184651#0 -127588518#1 -127588518#0 -127588523 -127588520 -104081868#1"/>
    </vehicle>
    <vehicle id="33" depart="33.00">
        <route edges="-215795051#3 210585132 44075496 73542494 -73542497#1 -73542497#0 73542488 11185558#0 67567288#2"/>
    </vehicle>
    <vehicle id="34" depart="34.00">
        <route edges="-210585088 -11176415#1 -11176415#0 49846076#11 80776637 -73540498#4 -73540498#3 -73540498#2 -73540498#1 -73540498#0 -73541792 -47026378#4 -47026378#3 -47026378#2"/>
    </vehicle>
    <vehicle id="35" depart="35.00">
        <route edges="73542491 215671211#0 215671211#1 -53848099#0 -53848098#1 -53848098#0 -215671204#1 -215671204#0 -213546066 -213546063#1 -213546063#0 -73540500#4 -73540500#3 -73540500#2 -73540500#1 -73540500#0 215359981#0 -215359981#0"/>
    </vehicle>
    <vehicle id="36" depart="36.00">
        <route edges="-43990457#0 11180285#4 11180285#5 -73538113#2 -73538113#1 -73540500#4 -73540500#3 -73540500#2 -73540500#1 -73540500#0 -215359980#2 -215359980#1 -215359980#0 44034544 196818520 -196818520"/>
    </vehicle>
    <vehicle id="37" depart="37.00">
        <route edges="11192348#0 127605064#1 -210328297#0 -213546064#1 -213546064#0 -210328296 210328288 213546019#0 213546019#1 213546019#2 213546019#3 213546019#4 213546019#5 127588489#0 127588489#1 127588489#2 127588488 73540480#0 73540480#1 73540480#2 104081861#0 104081861#1 104081868#0 104081868#1 127588520 127588523 127588518#0 210584958#0 210584958#1 156772057#1 11189667"/>
    </vehicle>
    <vehicle id="38" depart="38.00">
        <route edges="-49846076#9 49846076#9 49846076#10 49846076#11 80776637 73538114 210328288 213546019#0 213546019#1 213546019#2 213546019#3 213546019#4 213546019#5 127588489#0 127588489#1 127588489#2 127588488 73540480#0 73540480#1 73540480#2 104081861#0 104081861#1 104081868#0 104081868#1 127588520 127588523 127588518#0 210584958#0 210584958#1 156772057#1 156772057#2"/>
    </vehicle>
    <vehicle id="39" depart="39.00">
        <route edges="210328292#15 210328292#16 210328290#0 44035168#7 44035168#8 44035168#9 44035168#10 44035168#11 44035168#12 44035168#13 44035168#14 44035168#15 -11193647#6 -11193647#5 -11193647#4 50783092#7 50783092#8"/>
    </vehicle>
    <vehicle id="40" depart="40.00">
        <route edges="-80664630#0 -213546021#2 -11176415#1 -11176415#0 49846076#11 80776637 73538114 -213546060 -215885166 -215885171 -215885169 -215885167 -215885168 -215885170 -213546067 -215671214#1 -215671214#0 -213546066 -213546063#1 -213546063#0 73538113#1 73538113#2 73538120#0 73538120#1"/>
    </vehicle>
    <vehicle id="41" depart="41.00">
        <route edges="73540500#0 73540500#1 73540500#2 73540500#3 11187684#0 -11187684#0"/>
    </vehicle>
    <vehicle id="42" depart="42.00">
        <route edges="50783091#0 50783091#1 50783091#2 11193647#8 11193647#9 11193647#10 215671208#0 215671208#1 215671208#2 51064594#0 51064594#1 43990508#0 43990508#1 43990508#2 43990508#3 43990508#4 80659133#2 80659133#3 11189528#0 11189528#1 11180285#3 43990457#0 43990457#1 43990457#2 73531003 215486793#0 -215486793#0"/>
    </vehicle>
    <vehicle id="43" depart="43.00">
        <route edges="213546021#1 -11176415#1 -11176415#0 49846076#11 80776637 73538114 -213546060 -215885166 -215885171 -215885169 -215885167 -215885168 -215885170 -213546067 -215671214#1 -215671214#0 -73538102 -73538109#1 -73538109#0 -11193557#4 -11193557#3"/>
    </vehicle>
    <vehicle id="44" depart="44.00">
        <route edges="-213546035 -11197290#2 -11197290#1 -11197290#0 73538117#2 -213579727#1 -213579727#0 -53848099#0 -53848098#1 -43990411#1 -43990411#0 11179242#0 11179242#1 127588557#0 127588557#1"/>
    </vehicle>
    <vehicle id="45" depart="45.00">
        <route edges="74098641#4 47026388#0 47026388#1 47026388#2 80620829 77431419#0 77431419#1 77431419#2 44035168#2 44035168#3 44035168#4 44035168#5 44035168#6 44035168#7 44035168#8 44035168#9 49846076#5 49846076#6 49846076#7 49846076#8 49846076#9 49846076#10 49846076#11 80776637 73538114 -213546060 -215885166 -215885171 -215885169 -215885167 -215885168 -215885170 -213546067 -215671214#1 -215671214#0 -213546066 -213546063#1 -213546063#0 -73540500#4 -73540500#3 -213546022#5 -213546022#4"/>
    </vehicle>
    <vehicle id="46" depart="46.00">
        <route edges="-43990411#2 53848098#1 53848099#0 53848099#1 -104081868#1 -104081868#0 -104081861#1 -156772091#2"/>
    </vehicle>
    <vehicle id="47" depart="48.00">
        <route edges="-11196739#1 -11196739#0 11192207#0 11192207#1 11203589#0 11203589#1 67596637 67596638 213546030 49846076#2 49846076#3 49846076#4 49846076#5 49846076#6 49846076#7 49846076#8 49846076#9 49846076#10 49846076#11 80776637 73538114 -213546060 -215885166 -215885171 -215885169 -215885167 -215885168 -215885170 -213546067 -215671214#1 -215671214#0 -213546066 -213546063#1 -213546063#0 -73538113#0"/>
    </vehicle>
    <vehicle id="48" depart="49.00">
        <route edges="11177800#1 11177800#2 80664415#0 44035020#0 44035020#1 -11186453#1 -11186453#0 80659128#0 80659128#1 80659128#2 80659128#3 80659128#4 80659128#5 80664414#0 80664414#1 80664414#2 80664414#3 80664414#4 80664414#5 80664414#6 80664414#7 80664413 47528851#0 47528851#1 47528851#2 11192510#0 11192510#1 49846076#0 49846076#1 49846076#2 49846076#3 49846076#4 49846076#5 49846076#6 49846076#7 49846076#8 49846076#9 49846076#10 11176415#0 11176415#1 213546021#2"/>
    </vehicle>
    <vehicle id="49" depart="50.00">
        <route edges="210584954 -210584954 -210585135 -210585134 -210585133 -210585138 -210585137 -210585136 -213546043 -75459746#2 -75459746#1 -75459746#0 -53848099#1 -53848099#0 -53848098#1 -53848098#0 -215671204#1 -11185558#1 -11185558#0 -73542488 -11196649 11185663#0 11203462#0 11203462#1"/>
    </vehicle>
    <vehicle id="50" depart="51.00">
        <route edges="215885158#0 -11176415#0 -49846076#10 -49846076#9 -49846076#8 215795047#3 215795047#4 -11197189#12 -11197189#11 -11197189#10 -11197189#9 -11197189#8 -11197189#7 44035168#12 -11204339#2 -11204339#1"/>
    </vehicle>
    <vehicle id="51" depart="51.00">
        <route edges="215885158#0 -11176415#0 -49846076#10 -49846076#9 -49846076#8 215795047#3 215795047#4 -11197189#12 -11197189#11 -11197189#10 -11197189#9 -11197189#8 -11197189#7 44035168#12 -11204339#2 -11204339#1"/>
    </vehicle>
    <vehicle id="52" depart="52.00">
        <route edges="215486794#0 -43990457#2 -213546022#1 -213546022#0 -213546024 -213546026 -213546028"/>
    </vehicle>
    <vehicle id="53" depart="53.00">
        <route edges="-11188446 11181664#1 210585141"/>
    </vehicle>
    <vehicle id="54" depart="54.00">
        <route edges="213546066 -213546066 -213546063#1 -213546063#0 -73540500#4 -73540500#3 -73540500#2 -73540500#1 -73540500#0 -215359980#2 -215359980#1 -215359980#0 44034544 213579725"/>
    </vehicle>
    <vehicle id="55" depart="55.00">
        <route edges="-156772091#6 -156772091#5 -156772091#4 -156772091#3 104081861#1 104081868#0 104081868#1 -53848099#1 -53848099#0 -53848098#1 -53848098#0 -215671204#1 -215671204#0 -73538102 -73538109#1 -73538109#0 -73538119#4 -11192306"/>
    </vehicle>
    <vehicle id="56" depart="56.00">
        <route edges="67569905#1 213546038#0 215359980#2 73540500#0 73540500#1 73540500#2 73540500#3 73540500#4 213546063#0 213546063#1 213546066 215671214#0 215671214#1 213546067 215885170 215885168 215885167 215885169 215885171 215885166 213546060 210328296 213546064#0 213546064#1 210328297#0 -127605064#1 127605064#1"/>
    </vehicle>
    <vehicle id="57" depart="57.00">
        <route edges="-44034414 75459746#6 104081862#0 -196818520 213579725"/>
    </vehicle>
    <vehicle id="58" depart="58.00">
        <route edges="44034544 196818520 -104081862#0 -75459746#6 -75459746#5 -75459746#4 -75459746#3 -75459746#2 -75459746#1 -75459746#0 -104081868#1 -104081868#0 -104081861#1 -104081861#0 -73540480#2 -73540480#1 -73540480#0 -127588488 -127588489#2 -127588489#1 -127588489#0 -213546019#5 -213546019#4 215795049#0 -215885158#5"/>
    </vehicle>
    <vehicle id="59" depart="59.00">
        <route edges="156772057#0 -210584958#1 -210584958#0 -127588518#0 -127588523 -127588520 -53848099#1 -53848099#0 -53848098#1 -53848098#0 -215671204#1 -215671204#0 -73538102 -73538109#1 -73538109#0 -49847026 49847026"/>
    </vehicle>
    <vehicle id="60" depart="60.00">
        <route edges="-210585014 -44034414 -75459746#5 -75459746#4 -75459746#3 -75459746#2 -75459746#1 -75459746#0 -104081868#1 -104081868#0 -104081861#1 -104081861#0 -73540480#2 -73540480#1 -73540480#0 -127588488 -127588489#2 -127588489#1 -127588489#0 -213546019#5 -213546019#4 -213546019#3 -213546019#2 -213546019#1 -213546019#0 -210328288 -73538114 -80776637 -49846076#11 -49846076#10 -49846076#9 -49846076#8 -49846076#7 -49846076#6 -49846076#5 -49846076#4 -49846076#3 -49846076#2 -213546030 213546046#2 213546046#3 -215671206#1 -215671206#0"/>
    </vehicle>
    <vehicle id="61" depart="61.00">
        <route edges="215795047#4 215795047#5 215795047#6 51064594#0 51064594#1 43990508#0 43990508#1 43990508#2 43990508#3 43990508#4 80659133#2 80659133#3 49847026 73538109#0 73538109#1 73538102 -213546066 -213546063#1 -213546063#0 -73538113#0"/>
    </vehicle>
    <vehicle id="62" depart="62.00">
        <route edges="-210584954 -210585135 -210585134 -210585133 -210585138 -210585137 -210585136 -213546043 -75459746#2 -75459746#1 -75459746#0 -53848099#1 -53848099#0 -53848098#1 -53848098#0 -215671204#1 -215671204#0 215671214#0 215671214#1 213546067 215885170 215885168 215885167 215885169 215885171 215885166"/>
    </vehicle>
    <vehicle id="63" depart="63.00">
        <route edges="-210328292#14 49846076#4 49846076#5 49846076#6 49846076#7 49846076#8 49846076#9 49846076#10 49846076#11 80776637 73538114 -213546060 -215885166 -215885171 -215885169 -215885167 -215885168 -215885170 -213546067 -215671214#1 -215671214#0 215671204#0 215671204#1 53848098#0 53848098#1 53848099#0 213579727#0 213579727#1 -73538117#2 11197290#0 11187684#3"/>
    </vehicle>
    <vehicle id="64" depart="64.00">
        <route edges="210328292#12 -11197189#5 -11197189#4 -11197189#3 -11197189#2 -11197189#1 -11197189#0 47528851#1 47528851#2 11192510#0 11192510#1 49846076#0 49846076#1 49846076#2 49846076#3 49846076#4 49846076#5 49846076#6 49846076#7 49846076#8 49846076#9 49846076#10 49846076#11 80776637 73538114 210328288 213546019#0 213546019#1 213546019#2 213546019#3 213546019#4 213546019#5 127588489#0 127588489#1 127588489#2 127588488 73540480#0 73540480#1 213546039"/>
    </vehicle>
    <vehicle id="65" depart="65.00">
        <route edges="11194590#0 11194590#1 80659133#3 49847026 73538109#0 73538109#1 73538102 -213546066 -213546063#1 -213546063#0 -73540500#4 -73540500#3 -73540500#2 -73540500#1 -73540500#0 -215359980#2 -215359980#1 -215359980#0"/>
    </vehicle>
    <vehicle id="66" depart="66.00">
        <route edges="213546027#1 -75459746#3 -75459746#2 -75459746#1 -75459746#0 -53848099#1 -53848099#0 -53848098#1 -53848098#0 -215671204#1 -215671204#0 -73538102 -73538109#1 -73538109#0"/>
    </vehicle>
    <vehicle id="67" depart="67.00">
        <route edges="-80659133#1 -80659133#0 80659106#0 80659106#1 80659106#2 80659106#3 80659106#4 80659106#5 77431190#0 77431190#1 77431190#2 -80671216#2 -80671216#1"/>
    </vehicle>
    <vehicle id="68" depart="68.00">
        <route edges="213546063#0 213546063#1 213546066 215671204#0 215671204#1 53848098#0 53848098#1 53848099#0 53848099#1 127588520 127588523 127588518#0 210584958#0 210584958#1 210584958#2"/>
    </vehicle>
    <vehicle id="69" depart="69.00">
        <route edges="67561684 11179242#1 67567167#1 67567167#2 11185663#0 11185663#1 11185663#2 -215885170 -213546067 -215671214#1 -215671214#0 -73538102 -73538109#1 -73538109#0 -49847026 -80659133#3 -80659133#2"/>
    </vehicle>
    <vehicle id="70" depart="70.00">
        <route edges="-11183171#0 47026378#3 47026378#4 73541792 73541769#0 215885170 215885168 215885167 215885169 215885171 215885166 213546060 210328288 213546019#0 213546019#1 213546019#2 213546019#3 213546019#4 11190859 210585130 210585127 -210585127"/>
    </vehicle>
    <vehicle id="71" depart="71.00">
        <route edges="-156772062#1 -156772062#0 -210584953 -210584954 -210584958#2 -210584958#1 -210584958#0 -210584955 -11186209#1 -11186209#0 -156772091#5 -11193273#2 -11193273#1 69539614#1"/>
    </vehicle>
    <vehicle id="72" depart="72.00">
        <route edges="73538117#1 73538117#2 73538117#3 75459746#2 75459746#3 213546027#2 156772062#0 -156772062#0"/>
    </vehicle>
    <vehicle id="73" depart="73.00">
        <route edges="-43990411#6 -213546029#1 -213546029#0 -157403432 73540500#2 73540500#3 73540500#4 213546063#0 213546063#1 213546066 215671214#0 215671214#1 213546067 215885170 215885168 215885167 215885169 215885171 215885166 213546060 -73538114 -80776637 -49846076#11 -49846076#10 -49846076#9 -49846076#8 -49846076#7 -49846076#6 -49846076#5 -49846076#4 -49846076#3 -49846076#2 -213546030 213546046#2 213546046#3 -215671206#1 -215671206#0"/>
    </vehicle>
    <vehicle id="74" depart="74.00">
        <route edges="-80659106#7 -80659106#6 -80659106#5 -80659106#4 -80659106#3 -80659106#2 -80659106#1 -80659106#0 80659133#0 80659133#1 80659133#2 80659133#3 49847026 73538109#0 73538109#1 73538102 215671204#0 215671204#1 53848098#0 53848098#1 53848099#0 53848099#1 -104081868#1 -104081868#0 -104081861#1 -104081861#0 -73540480#2 -73540480#1 -73540480#0 127588487"/>
    </vehicle>
    <vehicle id="75" depart="75.00">
        <route edges="-215359981#0 73540500#0 73540500#1 73540500#2 73540500#3 73540500#4 213546063#0 213546063#1 213546066 215671204#0 215671204#1 53848098#0 53848098#1 53848099#0 53848099#1 -104081868#1 -104081868#0 -104081861#1 -156772091#2"/>
    </vehicle>
    <vehicle id="76" depart="75.00">
        <route edges="-215359981#0 73540500#0 73540500#1 73540500#2 73540500#3 73540500#4 213546063#0 213546063#1 213546066 215671204#0 215671204#1 53848098#0 53848098#1 53848099#0 53848099#1 -104081868#1 -104081868#0 -104081861#1 -156772091#2"/>
    </vehicle>
    <vehicle id="77" depart="77.00">
        <route edges="50969827#0 44035168#0 44035168#1 44035168#2 44035168#3 44035168#4 44035168#5 44035168#6 44035168#7 44035168#8 44035168#9 44035168#10 44035168#11 11197189#7 11197189#8 11197189#9 11197189#10 11197189#11 11197189#12 215795047#5 215795047#6 51064594#0 51064594#1 43990508#0 43990508#1 43990508#2 43990508#3 43990508#4 80659133#2 80659133#3 11189528#0 11189528#1"/>
    </vehicle>
    <vehicle id="78" depart="78.00">
        <route edges="80664414#7 11205456#0 11205456#1 11205456#2 11205456#3 11201609#0 11201609#1 11201609#2 11201609#3 11201609#4 11201609#5 11201609#6 80655317 80655316#0 80655316#1 -80664411#1 -80664411#0 -80659106#8 -80659106#7 -80659106#6 -80659106#5 -80659106#4 -80659106#3 -80659106#2 -80659106#1 -80659106#0 80659133#0 80659133#1 80659133#2 80659133#3 49847026 73538109#0 73538109#1 73538102 215671204#0 215671204#1 53848098#0 53848098#1 53848099#0 53848099#1 127588520 127588523 127588518#0 127588518#1 11184651#0 11184651#1"/>
    </vehicle>
    <vehicle id="79" depart="79.00">
        <route edges="56027396#15 44035019#1 80664415#0 44035020#0 44035020#1 -11186453#1 -11186453#0 80659128#0 80659128#1 80659128#2 80659128#3 80659128#4 80659128#5 -80659106#8 -80659106#7 -80659106#6 -80659106#5 -80659106#4 -80659106#3 -80659106#2 -80659106#1 -80659106#0 80659133#0 80659133#1 80659133#2 80659133#3 49847026 73538109#0 73538109#1 73538102 215671214#0 215671214#1 213546067 215885170 215885168 215885167 215885169 215885171 215885166 213546060 -73538114 -11192348#3 -11192348#2"/>
    </vehicle>
    <vehicle id="80" depart="80.00">
        <route edges="50969827#0 44035168#0 44035168#1 44035168#2 44035168#3 44035168#4 44035168#5 44035168#6 44035168#7 44035168#8 44035168#9 44035168#10 44035168#11 44035168#12 44035168#13 44035168#14 44035168#15 -11193647#6 -11193647#5 -11193647#4 -11193647#3 -11193647#2 -11193647#1 -11193647#0 11205456#0 11205456#1 11205456#2 11205456#3 11201609#0 11201609#1 11201609#2 11201609#3 11201609#4 11201609#5 -11201609#5"/>
    </vehicle>
    <vehicle id="81" depart="81.00">
        <route edges="-47026382 -213546064#1 -213546064#0 -210328296 -213546060 -215885166 -215885171 -215885169 -215885167 -215885168 -215885170 -213546067 -215671214#1 -215671214#0 -213546066 -213546063#1 -213546063#0 73538113#1 73538113#2 73538120#0 -11181848"/>
    </vehicle>
    <vehicle id="82" depart="82.00">
        <route edges="-11202783 213546022#5 73540500#3 73540500#4 213546063#0 213546063#1 213546066 215671204#0 215671204#1 53848098#0 53848098#1 53848099#0 53848099#1 127588520 127588523 127588518#0 127588518#1 11184651#0 11184651#1 -11184651#1"/>
    </vehicle>
    <vehicle id="83" depart="83.00">
        <route edges="-215795051#3 215795051#3 215795051#4 215795051#5 215795051#6 73540480#1 73540480#2 104081861#0 156772091#3 156772091#4 156772091#5 11186209#0 11186209#1"/>
    </vehicle>
    <vehicle id="84" depart="84.00">
        <route edges="-11185668 -11193273#1 -11193273#0 -73538104 -127588487 -127588488 -127588489#2 -127588489#1 -127588489#0 -213546019#5 -213546019#4 -213546019#3 -213546019#2 -213546019#1 -213546019#0 -210328288 210328296 213546064#0 213546064#1 210328297#0 -127605064#1 -127605064#0"/>
    </vehicle>
    <vehicle id="85" depart="85.00">
        <route edges="67596637 67596638 213546030 49846076#2 49846076#3 49846076#4 44035168#10 44035168#11 11197189#7 11197189#8 11197189#9 11197189#10 11197189#11 11197189#12 215795047#5 215795047#6 51064594#0 51064594#1 43990508#0 43990508#1 11196142#0 11196142#1"/>
    </vehicle>
    <vehicle id="86" depart="86.00">
        <route edges="11182195#0 11182195#1 11192510#0 11192510#1 49846076#0 49846076#1 49846076#2 49846076#3 49846076#4 49846076#5 49846076#6 49846076#7 49846076#8 49846076#9 49846076#10 49846076#11 80776637 73538114 -213546060 -215885166 -215885171 -215885169 -215885167 -215885168 -215885170 -213546067 -215671214#1 -215671214#0 215671204#0 215671204#1"/>
    </vehicle>
    <vehicle id="87" depart="87.00">
        <route edges="215344910#2 -215344910#2 -215344910#1 -215344910#0 -104081862#0 -75459746#6 -75459746#5 -75459746#4 -75459746#3 -75459746#2 -75459746#1 -75459746#0 -104081868#1 -104081868#0 -104081861#1 -104081861#0 -73540480#2 213546039 157848807 157848803 157848801 157848808 73542499 44075492 11185661 -210585132"/>
    </vehicle>
    <vehicle id="88" depart="88.00">
        <route edges="67571408 73540498#4 -80776637 -49846076#11 -49846076#10 -49846076#9 -49846076#8 215795047#3 215795047#4 215795047#5 215795047#6 -215671208#2 56027396#9 56027396#10"/>
    </vehicle>
    <vehicle id="89" depart="89.00">
        <route edges="44035168#12 44035168#13 44035168#14 44035168#15 11193647#7 11193647#8 11193647#9 11193647#10 215671208#0 215671208#1 215671208#2 51064594#0 51064594#1 43990508#0 43990508#1 43990508#2 43990508#3 43990508#4 80659133#2 80659133#3 11189528#0 -11189528#0"/>
    </vehicle>
    <vehicle id="90" depart="90.00">
        <route edges="-213579725 -44034544 215359980#0 215359980#1 215359980#2 73540500#0 73540500#1 73540500#2 -213546022#5 -213546022#4 -73538120#1"/>
    </vehicle>
    <vehicle id="91" depart="91.00">
        <route edges="-210585010 210585010 -43990411#2 -53848098#0 -215671204#1 -215671204#0 -73538102 -73538109#1 -73538109#0 -11193557#4 -11193557#3 -11193557#2 -11193557#1 50970000"/>
    </vehicle>
    <vehicle id="92" depart="92.00">