<?xml version="1.0" encoding="UTF-8"?>

<!-- generated on 05/14/17 17:40:28 by SUMO duarouter Version 0.29.0
<?xml version="1.0" encoding="UTF-8"?>

<configuration xmlns:xsi="http://www.w3.org/2001/XMLSchema-instance" xsi:noNamespaceSchemaLocation="http://sumo.dlr.de/xsd/duarouterConfiguration.xsd">

    <input>
        <net-file value="F:\Dev\vanetproject\VANETSim\simulations\_maps\downtownorlando\downtownorlando.net.xml"/>
        <trip-files value="trips.trips.xml"/>
    </input>

    <output>
        <output-file value="downtownorlando300.rou.xml"/>
    </output>

    <processing>
        <ignore-errors value="true"/>
    </processing>

    <time>
        <begin value="1000.0"/>
        <end value="3600.0"/>
    </time>

    <report>
        <no-warnings value="true"/>
        <no-step-log value="true"/>
    </report>

</configuration>
-->

<routes xmlns:xsi="http://www.w3.org/2001/XMLSchema-instance" xsi:noNamespaceSchemaLocation="http://sumo.dlr.de/xsd/routes_file.xsd">
    <vehicle id="0" depart="1000.00">
        <route edges="-11197189#9 11197189#9 11197189#10 11197189#11 11197189#12 215795047#5 215795047#6 51064594#0 51064594#1 43990508#0 43990508#1 43990508#2 43990508#3 43990508#4 80659133#2 80659133#3 49847026 73538109#0 73538109#1 73538102 215671204#0 215671204#1 53848098#0 53848098#1 53848099#0 53848099#1 -104081868#1 -104081868#0 -104081861#1 -104081861#0 -73540480#2 -73540480#1 -215795051#6 11179545 -127588489#1 -127588489#0 -213546019#5 -213546019#4 215795049#0 -215885158#5 -11203462#2 -213546019#1 -213546019#0 -210328288 -213546060 -215885166 -215885171 -215885169 -215885167 -215885168 -215885170 -213546067 -215671214#1 -215671214#0 -213546066 -213546063#1 -213546063#0 -73540500#4 -73540500#3 -73540500#2 -73540500#1 -73540500#0 215359981#0 215359981#1 215359982 215486792#0 -215486792#0 -73538097 73538119#0 73538119#1 73538119#2 73538119#3 73538119#4 73538109#0 73538109#1 11177970#0 11177970#1 -47026378#4 47026378#4 73541792 73541769#0 -213546067 -215671214#1 -215671214#0 215671204#0 215671204#1 53848098#0 53848098#1 53848099#0 53848099#1 127588520 127588523 127588518#0 -210584955 -11186209#1 -11186209#0"/>
    </vehicle>
    <vehicle id="4" depart="1020.00">
        <route edges="210585009 210585010 -43990411#2 53848098#1 53848099#0 -215671211#1 -215671211#0 -73542491 73542499 -11197292 215795051#5 11179545 -127588489#1 -127588489#0 -213546019#5 -213546019#4 -213546019#3 -213546019#2 -213546019#1 -213546019#0 -210328288 -73538114 -80776637 -49846076#11 -49846076#10 -49846076#9 -49846076#8 215795047#3 215795047#4 -11197189#12 -11197189#11 -11197189#10 -11197189#9 -11197189#8 -11197189#7 -11197189#6 11197189#6 11197189#7 11197189#8 11197189#9 11197189#10 11197189#11 11197189#12 215795047#5 215795047#6 51064594#0 51064594#1 43990508#0 43990508#1 43990508#2 43990508#3 43990508#4 -80659133#1 -80659133#0 11177800#0 11177800#1 44035018#0 44035018#1 47026714#0 47026714#1 80664415#2 -213546024 -213546026 47026380#1 80659128#0 80659128#1 80659128#2 80659128#3 80659128#4 80659128#5 -80659106#8 -80659106#7 -80659106#6 -80659106#5 80659106#5 -80659106#5 -80659106#4 -80659106#3 -80659106#2 -80659106#1 -80659106#0 80659133#0 80659133#1 80659133#2 80659133#3 49847026 73538109#0 73538109#1 73538102 215671214#0 215671214#1 213546067 73541769#1 73541769#2 -73542488 -11196649 -67567167#2 -11181964#1 -215795051#0 -215795058#2 -215795058#1 -215795058#0 -215885169 -215885167 -215885168 -215885170 -213546067 -215671214#1 -215671214#0 -73538102 -73538109#1 -73538109#0 -49847026 11189528#0 11189528#1 11180285#3 43990457#0 -43990457#0"/>
    </vehicle>
    <vehicle id="5" depart="1025.00">
        <route edges="80664415#0 44035020#0 44035020#1 -11186453#1 -11186453#0 80659128#0 80659128#1 80659128#2 80659128#3 80659128#4 80659128#5 -80659106#8 -80659106#7 -80659106#6 -80659106#5 -80659106#4 -80659106#3 -80659106#2 -80659106#1 -80659106#0 80659133#0 80659133#1 80659133#2 80659133#3 49847026 73538109#0 73538109#1 73538102 215671204#0 215671204#1 53848098#0 53848098#1 53848099#0 -215671211#1 -215671211#0 -73542491 73542491 215671211#0 215671211#1 -53848099#0 -53848098#1 -53848098#0 -215671204#1 -215671204#0 -73538102 -73538109#1 -73538109#0 -49847026 49847026 -73538119#4 -73538119#3 -73538119#2 -73538119#1 -73538119#0 73538097 -215359982 -215359981#1 -215359981#0 73540500#0 73540500#1 73540500#2 73540500#3 73540500#4 213546063#0 213546063#1 213546066 215671214#0 215671214#1 213546067 215885170 215885168 215885167 215885169 215885171 215885166 213546060 210328296 213546064#0 213546064#1 75248722 -213546036 -11203462#2 -213546019#1 -213546019#0 -210328288 -73538114 -80776637 -49846076#11 -49846076#10 -49846076#9 -49846076#8 -49846076#7 -49846076#6 -49846076#5 -49846076#4 -49846076#3 -49846076#2 -213546030 213546046#2 213546046#3 74098641#1 74098641#2 11192207#0 11192207#1 11203589#0 11203589#1 67596637 67596638 213546030 49846076#2 49846076#3 49846076#4 49846076#5 49846076#6 49846076#7 49846076#8 49846076#9 49846076#10 49846076#11 80776637 73538114 210328296 213546064#0 213546064#1"/>
    </vehicle>
    <vehicle id="6" depart="1030.00">
        <route edges="-11192348#2 11192348#2 11192348#3 -73540498#4 -73540498#3 -73540498#2 -73540498#1 -73540498#0 -73541792 -11177970#1 -11177970#0 -73538109#1 -73538109#0 -49847026 11189528#0 11189528#1 11180285#3 11180285#4 73538119#3 73538119#4 73538109#0 73538109#1 73538102 215671214#0 215671214#1 213546067 215885170 215885168 215885167 215885169 215885171 215885166 213546060 210328288 -210328288 -213546060 -215885166 -215885171 -215885169 -215885167 -215885168 -215885170 -213546067 -215671214#1 -215671214#0 -213546066 -213546063#1 -213546063#0 -73540500#4 -73540500#3 -73540500#2 -73540500#1 -73540500#0 215359981#0 215359981#1 215359982 215486792#0 215486792#1 -215486792#1 -73531003 -43990457#2 -43990457#1 -43990457#0 -11180285#3 -11189528#1 -11189528#0 -80659133#3 -80659133#2 -80659133#1 -80659133#0 80659106#0 80659106#1 80659106#2 80659106#3 80659106#4 80659106#5 80659106#6 80659106#7 80659106#8 80664411#0 80664411#1 -80655316#1 -80655316#0 -80655317 -11201609#6 -11201609#5 -11201609#4 -11201609#3 11201609#3 11201609#4 11201609#5 11201609#6 80655317 80655316#0 80655316#1 -80664411#1 -80664411#0 -80659106#8 -80659106#7 -80659106#6 -80659106#5 -80659106#4 -80659106#3 -80659106#2 -80659106#1 -80659106#0 80659133#0 80659133#1 80659133#2 80659133#3 49847026 -73538119#4"/>
    </vehicle>
    <vehicle id="7" depart="1035.00">
        <route edges="215885158#1 80776632#3 80776637 73538114 -213546060 -215885166 -215885171 -215885169 -215885167 -215885168 -215885170 -213546067 -215671214#1 -215671214#0 215671204#0 215885102#0 215885102#1 73538113#0 213546063#0 213546063#1 213546066 -73538102 -73538109#1 -73538109#0 -11193557#4 -11193557#3 -11193557#2 -11193557#1 -11193557#0 -47026378#1 -47026378#0 -215671208#2 -215671208#1 -215671208#0 11179409#4 11179409#5 11179409#6 47026379 11197189#10 -11197189#10 -11197189#9 -11197189#8 -11197189#7 -11197189#6 -11197189#5 -11197189#4 -11197189#3 -11197189#2 -11197189#1 -11197189#0 47528851#1 47528851#2 11192510#0 11192510#1 49846076#0 49846076#1 49846076#2 49846076#3 49846076#4 49846076#5 49846076#6 49846076#7 49846076#8 49846076#9 49846076#10 49846076#11 80776637 73538114 210328288 213546019#0 213546019#1 213546019#2 213546019#3 -213546019#3 -213546019#2 -213546019#1 -213546019#0 -210328288 -213546060 -215885166 -215885171 -215885169 -215885167 -215885168 -215885170 -213546067 -215671214#1 -215671214#0 -213546066 -213546063#1 -213546063#0 -73540500#4 -73540500#3 -73540500#2 -73540500#1 -73540500#0 -215359980#2 -215359980#1 -215359980#0 215359980#0 215359980#1 215359980#2 73540500#0 73540500#1 73540500#2 73540500#3 73540500#4 213546063#0 213546063#1 213546066 215671214#0 215671214#1 213546067 215885170 215885168 215885167 215885169 215885171 215885166 213546060 -73538114 -80776637 -49846076#11 -49846076#10 -49846076#9 -49846076#8 -49846076#7 -49846076#6 -49846076#5 -49846076#4 -49846076#3 -49846076#2 -49846076#1 -49846076#0 -11192510#1 -11192510#0 11192510#0 11192510#1 49846076#0 11198835#0 11198835#1 127605025#0 127605025#1 127605026 11197189#2 11197189#3 11197189#4 11197189#5 11197189#6 11197189#7 11197189#8 11197189#9 11197189#10 11197189#11 11197189#12 215795047#5 215795047#6 51064594#0 51064594#1 43990508#0 43990508#1 43990508#2 43990508#3 43990508#4 80659133#2 80659133#3 11189528#0 11189528#1 11180285#3 43990457#0 43990457#1 -43990457#1"/>
    </vehicle>
    <vehicle id="8" depart="1040.00">
        <route edges="215671206#1 74098641#1 74098641#2 11192207#0 11192207#1 11203589#0 11203589#1 67596637 67596638 213546030 49846076#2 49846076#3 49846076#4 49846076#5 49846076#6 49846076#7 49846076#8 49846076#9 49846076#10 49846076#11 80776637 73538114 210328288 213546019#0 213546019#1 213546019#2 213546019#3 213546019#4 213546019#5 127588489#0 -127588489#0 -213546019#5 -213546019#4 -213546019#3 -213546019#2 -213546019#1 -213546019#0 -210328288 -213546060 -215885166 -215885171 -215885169 -215885167 -215885168 -215885170 -213546067 -215671214#1 -215671214#0 -73538102 -73538109#1 -73538109#0 -49847026 11189528#0 11189528#1 -11180285#2 -11180285#1 11180285#1 11194590#0 11194590#1 80659133#3 49847026 73538109#0 73538109#1 73538102 215671214#0 215671214#1 213546067 73541769#1 73541769#2 -73542488 -11196649 -67567167#2 -67567167#1 -67567167#0 73542494 43990411#0 43990411#1 53848098#1 53848099#0 53848099#1 75459746#0 75459746#1 75459746#2 75459746#3 75459746#4 75459746#5 75459746#6 104081862#0 -196818520 -44034544 215359980#0 215359980#1 215359980#2 73540500#0 73540500#1 73540500#2 73540500#3 73540500#4 213546063#0 213546063#1 213546066 215671214#0 215671214#1 213546067 215885170 215885168 215885167 215885169 215795058#0 11179939#1"/>
    </vehicle>
    <vehicle id="9" depart="1045.00">
        <route edges="-11193557#2 -11193557#1 -11193557#0 47026378#2 47026378#3 47026378#4 73541792 73541769#0 215885170 215885168 215885167 215885169 215885171 215885166 213546060 210328288 213546019#0 213546019#1 213546019#2 213546019#3 213546019#4 213546019#5 127588489#0 -127588489#0 -213546019#5 -213546019#4 -213546019#3 -213546019#2 -213546019#1 -213546019#0 -210328288 -73538114 -80776637 -80776632#3 -80776632#2 -213546021#0 -47026382 -213546064#1 -213546064#0 -210328296 210328288 213546019#0 213546019#1 213546019#2 11181964#0 11181964#1 67567167#2 -67567167#2 67567167#2 11185663#0 11185663#1 11185663#2 -215885170 -73541769#0 -73541792 -47026378#4 -47026378#3 -47026378#2 -47026378#1 -47026378#0 -215671208#2 -215671208#1 -215671208#0 -11193647#10 -11193647#9 -11193647#8 11193647#8 11193647#9 11193647#10 215671208#0 215671208#1 215671208#2 47026378#0 47026378#1 47026378#2 47026378#3 47026378#4 73541792 73541769#0 215885170 215885168 215885167 215885169 215795058#0 -215795058#0 -215885169 -215885167 -215885168 -215885170 -73541769#0 -73541792 -47026378#4 -47026378#3 -47026378#2 -47026378#1 -47026378#0 -215671208#2 -215671208#1 -215671208#0 -11193647#10 -11193647#9 -11193647#8 -11193647#7 75259994#0 75259994#1 75259994#2 75259994#3 75259994#4 75259994#5"/>
    </vehicle>
    <vehicle id="11" depart="1055.00">
        <route edges="11192348#3 -80776637 -49846076#11 -49846076#10 -49846076#9 -49846076#8 215795047#3 215795047#4 215795047#5 215795047#6 -215671208#2 -215671208#1 -215671208#0 -11179409#3 -11179409#2 11179409#2 11179409#3 11179409#4 11179409#5 11179409#6 47026379 -11197189#9 -11197189#8 -11197189#7 -11197189#6 -11197189#5 -11197189#4 -11197189#3 -11197189#2 -11197189#1 -11197189#0 47528851#1 47528851#2 11192510#0 11192510#1 49846076#0 49846076#1 -213546030 -67596638 -67596637 -11203589#1 -11203589#0 11192207#2 11192207#3 210328290#0 210328290#1 210328290#2 210328290#3 210328290#4 215795047#0 215795047#1 47026383#0 -47026383#0 215795047#2 215795047#3 215795047#4 215795047#5 215795047#6 51064594#0 51064594#1 43990508#0 43990508#1 43990508#2 43990508#3 43990508#4 -80659133#1 -80659133#0 11177800#0 11177800#1 11177800#2 80664415#0 44035020#0 44035020#1 -11186453#1 11186453#1 -11186453#1 -11186453#0 80659128#0 80659128#1 80659128#2 80659128#3 80659128#4 80659128#5 80664414#0 80664414#1 80664414#2 80664414#3 80664414#4 80664414#5 80664414#6 80664414#7 11193647#0 11193647#1 11193647#2 11193647#3 11193647#4 11193647#5 11193647#6 11193647#7 11193647#8 11193647#9 -11193647#9 11193647#9 11193647#10 215671208#0 215671208#1 215671208#2 51064594#0 51064594#1 43990508#0 43990508#1 43990508#2 43990508#3 43990508#4 80659133#2 80659133#3 49847026 -73538119#4 -73538119#3 -73538119#2 -73538119#1 -73538119#0 73538119#0 73538119#1 73538119#2 73538119#3 73538119#4 73538109#0 73538109#1 73538102 215671204#0 215671204#1 53848098#0 53848098#1 53848099#0 53848099#1 75459746#0 210585004 210585006 210585003"/>
    </vehicle>
    <vehicle id="12" depart="1060.00">
        <route edges="73540500#1 73540500#2 73540500#3 73540500#4 213546063#0 213546063#1 213546066 215671214#0 215671214#1 213546067 215885170 215885168 215885167 215885169 215795058#0 215795058#1 215795058#2 215795051#0 215795051#1 215795051#2 210585132 44075496 67567167#0 67567167#1 67567167#2 11185663#0 11185663#1 11185663#2 -215885170 -213546067 -215671214#1 -215671214#0 -73538102 -73538109#1 -73538109#0 -49847026 -80659133#3 -80659133#2 -80659133#1 -80659133#0 80659106#0 80659106#1 80659106#2 80659106#3 80659106#4 80659106#5 80659106#6 80659106#7 80659106#8 80664414#0 80664414#1 80664414#2 80664414#3 80664414#4 80664414#5 80664414#6 80664414#7 80664413 47528851#0 47528851#1 47528851#2 11192510#0 11192510#1 49846076#0 49846076#1 49846076#2 49846076#3 49846076#4 49846076#5 49846076#6 49846076#7 49846076#8 49846076#9 49846076#10 49846076#11 80776637 73538114 210328288 213546019#0 213546019#1 213546019#2 11181964#0 -11181964#0 -213546019#2 -213546019#1 -213546019#0 -210328288 -213546060 213546060 210328288 213546019#0 213546019#1 213546019#2 213546019#3 213546019#4 213546019#5 127588489#0 11197150 11197292 -73542499 -157848808 -157848801 -157848803 -157848807 -213546039 73540480#2 104081861#0 104081861#1 104081868#0 104081868#1 -53848099#1 -53848099#0 -53848098#1 -53848098#0 -215671204#1 -215671204#0 -73538102 -73538109#1 -73538109#0 -11193557#4 -11193557#3 -11193557#2 -11196142#1"/>
    </vehicle>
    <vehicle id="15" depart="1075.00">
        <route edges="44035168#2 44035168#3 44035168#4 44035168#5 44035168#6 44035168#7 44035168#8 11181663#3 213546046#0 213546046#1 213546030 -49846076#1 11198835#0 11198835#1 127605025#0 127605025#1 127605026 11197189#2 11197189#3 11197189#4 11197189#5 11197189#6 11197189#7 11197189#8 11197189#9 11197189#10 11197189#11 11197189#12 215795047#5 215795047#6 51064594#0 51064594#1 43990508#0 43990508#1 43990508#2 43990508#3 43990508#4 -80659133#1 -80659133#0 11177800#0 11177800#1 11177800#2 80664415#0 44035020#0 44035020#1 -11186453#1 -11186453#0 80659128#0 80659128#1 80659128#2 80659128#3 80659128#4 80659128#5 80664414#0 80664414#1 80664414#2 80664414#3 80664414#4 80664414#5 80664414#6 80664414#7 80664413 47528851#0 11199161#0 -11199161#0 11197189#0 11197189#1 11197189#2 11197189#3 11197189#4 11197189#5 11197189#6 11197189#7 11197189#8 11197189#9 11197189#10 11197189#11 11197189#12 215795047#5 215795047#6 51064594#0 51064594#1 43990508#0 43990508#1 43990508#2 43990508#3 43990508#4 80659133#2 80659133#3 49847026 73538109#0 73538109#1 73538102 215671214#0 215671214#1 213546067 215885170 215885168 215885167 215885169 215885171 215885166 213546060 -73538114 -80776637 -49846076#11 -49846076#10 -49846076#9 -49846076#8 -49846076#7 -49846076#6 -49846076#5 -49846076#4 -49846076#3 -49846076#2 -49846076#1 -49846076#0 49846076#0 49846076#1 49846076#2 49846076#3 49846076#4 49846076#5 49846076#6 49846076#7 49846076#8 49846076#9 49846076#10 49846076#11 80776637 73538114 -213546060 -215885166 -215885171 -215885169 -215885167 -215885168 -215885170 -213546067 -215671214#1 -215671214#0 215671204#0 -215671204#0"/>
    </vehicle>
    <vehicle id="16" depart="1080.00">
        <route edges="215671208#0 215671208#1 215671208#2 51064594#0 51064594#1 43990508#0 43990508#1 43990508#2 43990508#3 43990508#4 80659133#2 80659133#3 49847026 73538109#0 73538109#1 73538102 215671204#0 215671204#1 53848098#0 53848098#1 -53848098#1 -43990411#1 -43990411#0 11179242#0 11179242#1 127588557#0 215795051#2 -210585131 -210585128 -210585127 -210585130 210585130 210585127 210585128 -210585128 -210585127 -210585130 -11190859 -213546019#4 -213546019#3 -213546019#2 -213546019#1 -213546019#0 -210328288 -73538114 -80776637 -49846076#11 -49846076#10 -49846076#9 -49846076#8 215795047#3 215795047#4 -11197189#12 -11197189#11 -11197189#10 -11197189#9 -11197189#8 -11197189#7 44035168#12 11204339#3 11204339#4 -11204339#4 -11204339#3 44035168#13 44035168#14 44035168#15 11193647#7 11193647#8 11193647#9 11193647#10 215671208#0 215671208#1 215671208#2 51064594#0 51064594#1 43990508#0 43990508#1 43990508#2 43990508#3 43990508#4 -80659133#1 -80659133#0 11177800#0 11177800#1 11177800#2 80664415#0 80664415#1 80664415#2 80664415#3 80664415#4 -215958376 -215486792#1 -215486792#0 -215359982 -215359981#1 -215359981#0 73540500#0 73540500#1 73540500#2 73540500#3 73540500#4 213546063#0 213546063#1 213546066 215671204#0"/>
    </vehicle>
    <vehicle id="17" depart="1085.00">
        <route edges="-213579727#1 213579727#1 -73538117#2 -73538117#1 -73538117#0 73540484 -73540484 -215885102#1 -215885102#0 -11185558#1 -11185558#0 -73542488 -11196649 11196649 73542488 11185558#0 11185558#1 215671204#1 53848098#0 53848098#1 53848099#0 53848099#1 127588520 127588523 127588518#0 210584958#0 210584958#1 156772057#1 -156772057#1 -210584958#1 -210584958#0 -127588518#0 -127588523 -127588520 -53848099#1 -53848099#0 -53848098#1 -53848098#0 -215671204#1 -215671204#0 -73538102 -73538109#1 -73538109#0 -49847026 -80659133#3 -80659133#2 -80659133#1 -80659133#0 11177800#0 11177800#1 11177800#2 80664415#0 44035020#0 44035020#1 -11186453#1 -11186453#0 11186453#0 11186453#1 44035019#0 44035019#1 80664415#0 44035020#0 44035020#1 -11186453#1 -11186453#0 80659128#0 80659128#1 80659128#2 80659128#3 80659128#4 80659128#5 80664414#0 80664414#1 80664414#2 80664414#3 80664414#4 80664414#5 80664414#6 80664414#7 11193647#0 11193647#1 11193647#2 11193647#3 11193647#4 11193647#5 11193647#6 11193647#7 11193647#8 11193647#9 11193647#10 215671208#0 215671208#1 215671208#2 51064594#0 51064594#1 43990508#0 43990508#1"/>
    </vehicle>
    <vehicle id="18" depart="1090.00">
        <route edges="80659106#5 -80659106#5 -80659106#4 -80659106#3 -80659106#2 -80659106#1 -80659106#0 80659133#0 80659133#1 80659133#2 80659133#3 49847026 73538109#0 73538109#1 73538102 -213546066 -213546063#1 -213546063#0 -73540500#4 -73540500#3 -73540500#2 -73540500#1 -73540500#0 -215359980#2 213546038#1 213546037 -213546037 -213546038#1 215359980#2 73540500#0 73540500#1 73540500#2 73540500#3 73540500#4 213546063#0 213546063#1 213546066 215671214#0 215671214#1 213546067 73541769#1 73541769#2 -73542488 -11196649 -67567167#2 67567167#2 11185663#0 11185663#1 11185663#2 -215885170 -213546067 -215671214#1 -215671214#0 -73538102 -73538109#1 -73538109#0 -49847026 -80659133#3 -80659133#2 -80659133#1 -80659133#0 11177800#0 11177800#1 11177800#2 80664415#0 44035020#0 44035020#1 -11186453#1 11186453#1 -11186453#1 -11186453#0 80659128#0 80659128#1 80659128#2 80659128#3 80659128#4 80659128#5 80664414#0 80664414#1 80664414#2 80664414#3 80664414#4 80664414#5 80664414#6 80664414#7 11193647#0 11193647#1 11193647#2 11193647#3 11193647#4 11193647#5 11193647#6 75259994#0 75259994#1 75259994#2 75259994#3 75259994#4 75259994#5 75259994#6 75259994#7 75259994#8 11193647#5 11193647#6 11193647#7 11193647#8 11193647#9 11193647#10 215671208#0 215671208#1 215671208#2 47026378#0 47026378#1 47026378#2 47026378#3 47026378#4 73541792 73541769#0 215885170 215885168 215885167 215885169 215885171 215885166 213546060 210328288 213546019#0 213546019#1 213546019#2 213546019#3 213546019#4 213546019#5 127588489#0 127588489#1 210585119 210585120#0 210585120#1 210585110 210585122#0 210585122#1 210585123#0 -210585123#0 -210585122#1 -210585122#0 -210585110 -210585120#1 -210585141 -11181664#1 -11181664#0 127588474 -213546019#5 -213546019#4 -213546019#3 -213546019#2 -213546019#1 -213546019#0 -210328288 -213546060 -215885166 -215885171 -215885169 -215885167 -215885168 -215885170 -213546067 -215671214#1 -215671214#0 -73538102 -73538109#1 -73538109#0 -49847026 -80659133#3 -80659133#2 -80659133#1 -80659133#0 11177800#0 11177800#1 11177800#2 80664415#0 80664415#1 80664415#2 -213546024 -213546026 213546026"/>
    </vehicle>
    <vehicle id="19" depart="1095.00">
        <route edges="127605069 -127605069 104081868#1 -53848099#1 -53848099#0 -53848098#1 -53848098#0 -215671204#1 -215671204#0 -73538102 -73538109#1 -73538109#0 -49847026 -80659133#3 -80659133#2 -80659133#1 -80659133#0 80659106#0 80659106#1 -80659106#1 -80659106#0 80659133#0 80659133#1 80659133#2 80659133#3 49847026 73538109#0 73538109#1 73538102 215671204#0 215671204#1 53848098#0 53848098#1 53848099#0 -215671211#1 215671211#1 -53848099#0 -53848098#1 -53848098#0 -215671204#1 -215671204#0 -73538102 -73538109#1 -73538109#0 -49847026 -80659133#3 -80659133#2 -80659133#1 -80659133#0 80659106#0 80659106#1 80659106#2 80659106#3 80659106#4 80659106#5 80659106#6 80659106#7 80659106#8 80664411#0 80664411#1 -80655316#1 -80655316#0 -80655317 -11201609#6 -11201609#5 -11201609#4 -11201609#3 11201609#3 11201609#4 11201609#5 11201609#6 80655317 80655316#0 80655316#1 -80664411#1 -80664411#0 -80659106#8 -80659106#7 -80659106#6 -80659106#5 -80659106#4 -80659106#3 -80659106#2 -80659106#1 -80659106#0 80659133#0 80659133#1 80659133#2 80659133#3 49847026 -73538119#4 -73538119#3 -73538119#2 -73538119#1 -73538119#0 73538119#0 73538119#1 73538119#2 73538119#3 73538119#4 73538109#0 73538109#1 73538102 215671214#0 215671214#1 213546067 215885170 215885168 215885167 215885169 215885171 215885166 213546060 210328288 213546019#0 213546019#1 213546019#2 213546019#3 213546019#4 213546019#5 127588489#0 127588489#1 127588489#2 -127588489#2"/>
    </vehicle>
    <vehicle id="20" depart="1100.00">
        <route edges="215885166 -215885166 -215885171 -215885169 -215885167 -215885168 -215885170 -213546067 -215671214#1 -215671214#0 -73538102 -73538109#1 -73538109#0 -49847026 11189528#0 -11189528#0 -80659133#3 -80659133#2 -80659133#1 -80659133#0 80659106#0 80659106#1 80659106#2 80659106#3 80659106#4 80659106#5 80659106#6 80659106#7 80659106#8 80664414#0 80664414#1 80664414#2 80664414#3 80664414#4 80664414#5 80664414#6 80664414#7 11193647#0 11193647#1 11193647#2 11193647#3 11193647#4 11193647#5 11193647#6 11193647#7 11193647#8 11193647#9 11193647#10 215671208#0 215671208#1 215671208#2 47026378#0 -47026378#0 -215671208#2 -215671208#1 -215671208#0 11179409#4 11179409#5 11179409#6 47026379 -11197189#9 -11197189#8 -11197189#7 -11197189#6 -11197189#5 -11197189#4 -11197189#3 -11197189#2 -11197189#1 -11197189#0 47528851#1 47528851#2 11192510#0 11192510#1 49846076#0 49846076#1 49846076#2 49846076#3 49846076#4 49846076#5 49846076#6 49846076#7 49846076#8 49846076#9 -49846076#9 -49846076#8 -49846076#7 -49846076#6 -49846076#5 -49846076#4 -49846076#3 -49846076#2 -49846076#1 11198835#0 11198835#1 127605025#0 127605025#1 127605026 -11197189#1 -11197189#0 47528851#1 47528851#2 11192510#0 11192510#1 49846076#0 49846076#1 49846076#2 49846076#3 49846076#4 49846076#5"/>
    </vehicle>
    <vehicle id="21" depart="1105.00">
        <route edges="-80664411#0 -80659106#8 -80659106#7 -80659106#6 -80659106#5 -80659106#4 -80659106#3 -80659106#2 -80659106#1 -80659106#0 80659133#0 80659133#1 80659133#2 80659133#3 49847026 73538109#0 73538109#1 73538102 -213546066 -213546063#1 -213546063#0 213546063#0 -213546063#0 -73540500#4 11187684#0 11187684#1 11187684#2 -11197290#0 73538117#2 -213579727#1 -213579727#0 53848099#1 127588520 127588523 127588518#0 127588518#1 -127588518#1 -127588518#0 -127588523 -127588520 -53848099#1 -53848099#0 -53848098#1 -53848098#0 -215671204#1 -215671204#0 -73538102 -73538109#1 -73538109#0 -11193557#4 11193557#4 73538109#0 73538109#1 73538102 215671214#0 215671214#1 213546067 73541769#1 73541769#2 -73542488 73542497#0 73542497#1 156772091#0 156772091#1 -73542491 73542499 -11197292"/>
    </vehicle>
    <vehicle id="22" depart="1110.00">
        <route edges="-11203589#0 11203589#0 11203589#1 67596637 67596638 213546030 49846076#2 49846076#3 49846076#4 49846076#5 49846076#6 49846076#7 49846076#8 49846076#9 49846076#10 49846076#11 80776637 73538114 -213546060 -215885166 -215885171 215795058#0 215795058#1 215795058#2 -215795058#2 -215795058#1 -215795058#0 -215885169 -215885167 -215885168 -215885170 -213546067 -215671214#1 -215671214#0 -73538102 -73538109#1 -73538109#0 -49847026 11189528#0 -11189528#0 49847026 -11193557#4 -11193557#3 -11193557#2 11193557#2 -11193557#2 -11193557#1 -11193557#0 -47026378#1 -47026378#0 -215671208#2 -215671208#1 -215671208#0 11179409#4 -11179409#4 215671208#0 215671208#1 215671208#2 51064594#0 51064594#1 43990508#0 43990508#1 43990508#2 43990508#3 43990508#4 80659133#2 80659133#3 49847026 73538109#0 73538109#1 73538102 215671204#0 215671204#1 53848098#0 53848098#1 53848099#0 -53848099#0 -53848098#1 -53848098#0 -215671204#1 -215671204#0 -73538102 -73538109#1 -73538109#0 73538109#0"/>
    </vehicle>
    <vehicle id="23" depart="1115.00">
        <route edges="104081869 47026380#0 47026380#1 80659128#0 80659128#1 80659128#2 80659128#3 80659128#4 80659128#5 80664411#0 80664411#1 -80655316#1 80655316#1 -80664411#1 -80664411#0 -80659106#8 -80659106#7 -80659106#6 -80659106#5 -80659106#4 -80659106#3 -80659106#2 -80659106#1 -80659106#0 80659133#0 80659133#1 80659133#2 80659133#3 49847026 73538109#0 73538109#1 73538102 215671214#0 215671214#1 213546067 -73541769#0 73541769#0 -213546067 -215671214#1 -215671214#0 -213546066 -213546063#1 -213546063#0 -73540500#4 -73540500#3 -73540500#2 -73540500#1 -73540500#0 215359981#0 215359981#1 -215359981#1 215359981#1 215359982 215486792#0 215486792#1 215958376 140210324 47026380#0 47026380#1 80659128#0 80659128#1 80659128#2 80659128#3 80659128#4 80659128#5 -80659106#8 -80659106#7 -80659106#6 -80659106#5 -80659106#4 -80659106#3 -80659106#2 -80659106#1 -80659106#0 11177800#0 11177800#1 11177800#2 80664415#0 44035020#0 44035020#1 -11186453#1 -11186453#0 11186453#0 -11186453#0 80659128#0 80659128#1 80659128#2 80659128#3 80659128#4 80659128#5 -80659106#8 -80659106#7 -80659106#6 -80659106#5 -80659106#4 -80659106#3 -80659106#2 -80659106#1 -80659106#0 80659133#0 80659133#1 80659133#2 80659133#3 49847026 73538109#0 73538109#1 73538102 215671214#0 215671214#1 213546067 215885170 215885168 215885167 215885169 215885171 215885166 213546060 210328288 213546019#0 213546019#1 213546019#2 213546019#3 213546019#4 213546019#5 127588489#0 127588489#1 210585119 210585120#0 -210585141 -11181664#1 11188446 -67561688#0 67561688#0"/>
    </vehicle>
    <vehicle id="24" depart="1120.00">
        <route edges="-67567167#0 67567167#0 67567167#1 67567167#2 11185663#0 11185663#1 11185663#2 -215885170 -213546067 -215671214#1 -215671214#0 -73538102 11177970#0 -11177970#0 73538102 215671204#0 215671204#1 53848098#0 53848098#1 53848099#0 53848099#1 75459746#0 210585004 -210585004 -75459746#0 -104081868#1 -104081868#0 -104081861#1 -156772091#2 -73542491 73542499 -11197292 -11197150 -127588489#0 -213546019#5 -213546019#4 -213546019#3 -213546019#2 -213546019#1 -213546019#0 -210328288 -73538114 -80776637 -80776632#3 80776632#3 80776637 73538114 210328288 213546019#0 213546019#1 213546019#2 213546019#3 213546019#4 213546019#5 127588489#0 127588489#1 127588489#2 127588488 73540480#0 73540480#1 73540480#2 104081861#0 104081861#1 104081868#0 104081868#1 75459746#0 75459746#1 75459746#2 213546043 210585136 210585137 -210585137 -210585136 -213546043 -75459746#2 -75459746#1 -75459746#0 127588520 127588523 127588518#0 -210584955 -11186209#1 11186209#1"/>
    </vehicle>
    <vehicle id="25" depart="1125.00">
        <route edges="-73538119#0 73538119#0 73538119#1 73538119#2 73538119#3 73538119#4 -11193557#4 -11193557#3 -11193557#2 -11193557#1 -11193557#0 -47026378#1 -47026378#0 -215671208#2 -215671208#1 -215671208#0 11179409#4 11179409#5 11179409#6 47026379 -11197189#9 -11197189#8 -11197189#7 -11197189#6 11197189#6 44035168#12 44035168#13 44035168#14 44035168#15 11193647#7 11193647#8 11193647#9 11193647#10 215671208#0 215671208#1 215671208#2 47026378#0 47026378#1 47026378#2 47026378#3 47026378#4 73541792 73541769#0 215885170 215885168 215885167 215885169 215795058#0 11179939#1 11185663#2 -215885170 -213546067 -215671214#1 -215671214#0 215671204#0 215671204#1 53848098#0 53848098#1 53848099#0 53848099#1 127588520 127588523 127588518#0 210584958#0 210584958#1 -210584958#1 -210584958#0 -127588518#0 -127588523 -127588520 -53848099#1 -53848099#0 -53848098#1 -53848098#0 -215671204#1 -215671204#0 -73538102 -73538109#1 -73538109#0 -11193557#4 -11193557#3 -11193557#2 -11193557#1 -11193557#0 47026378#2 -47026378#2 -47026378#1 -47026378#0 -215671208#2 -215671208#1 -215671208#0 11179409#4 11179409#5 11179409#6 47026379 -11197189#9"/>
    </vehicle>
    <vehicle id="26" depart="1130.00">