<?xml version="1.0" encoding="UTF-8"?>

<!-- generated on 05/14/17 17:39:28 by SUMO duarouter Version 0.29.0
<?xml version="1.0" encoding="UTF-8"?>

<configuration xmlns:xsi="http://www.w3.org/2001/XMLSchema-instance" xsi:noNamespaceSchemaLocation="http://sumo.dlr.de/xsd/duarouterConfiguration.xsd">

    <input>
        <net-file value="F:\Dev\vanetproject\VANETSim\simulations\_maps\downtownorlando\downtownorlando.net.xml"/>
        <trip-files value="trips.trips.xml"/>
    </input>

    <output>
        <output-file value="downtownorlando100.rou.xml"/>
    </output>

    <processing>
        <ignore-errors value="true"/>
    </processing>

    <time>
        <begin value="1000.0"/>
        <end value="3600.0"/>
    </time>

    <report>
        <no-warnings value="true"/>
        <no-step-log value="true"/>
    </report>

</configuration>
-->

<routes xmlns:xsi="http://www.w3.org/2001/XMLSchema-instance" xsi:noNamespaceSchemaLocation="http://sumo.dlr.de/xsd/routes_file.xsd">
    <vehicle id="0" depart="1000.00">
        <route edges="80664634 -208938666 -140210324 -215958376 -215486792#1 -215486792#0 -215359982 -215359981#1 -215359981#0 73540500#0 73540500#1 73540500#2 73540500#3 73540500#4 213546063#0 213546063#1 213546066 215671214#0 215671214#1 213546067 215885170 215885168 215885167 215885169 215885171 215885166 213546060 210328288 213546019#0 213546019#1 213546019#2 213546019#3 215795049#0 -215885158#5 -11203462#2 -213546019#1 -213546019#0 -210328288 -73538114 -80776637 -49846076#11 -49846076#10 -49846076#9 -49846076#8 215795047#3 215795047#4 215795047#5 215795047#6 -215671208#2 -215671208#1 -215671208#0 -11193647#10 -11193647#9 -11193647#8 11193647#8 11193647#9 11193647#10 11179409#4 11179409#5 11179409#6 47026379 -11197189#9 -11197189#8 -11197189#7 -11197189#6 -11197189#5 -11197189#4 -11197189#3 -11197189#2 -11197189#1 -11197189#0 47528851#1 47528851#2 74098641#0 -215671206#1 215671206#1 74098641#1 74098641#2 11192207#0 11192207#1 11203589#0 11203589#1 67596637 67596638 213546030 49846076#2 49846076#3 49846076#4 49846076#5 49846076#6 49846076#7 49846076#8 49846076#9 49846076#10 49846076#11 80776637 73538114 210328288 213546019#0 213546019#1 213546019#2 213546019#3 213546019#4 213546019#5 127588489#0 127588489#1 127588489#2 127588488 73540480#0 73540480#1 73540480#2 104081861#0 104081861#1 104081868#0 104081868#1 75459746#0 210585004 210585006 210585003 210585005 -210584958#0 -127588518#0 -127588523 -127588520 -104081868#1 -104081868#0 -104081861#1 -104081861#0 -73540480#2 -73540480#1 -73540480#0 -127588488 -127588489#2 210585119 210585120#0 -210585141 -11181664#1 11188446"/>
    </vehicle>
    <vehicle id="1" depart="1020.00">
        <route edges="210585135 -210585135 -210585134 -210585133 -210585138 -210585137 -210585136 -213546043 -75459746#2 -75459746#1 -75459746#0 -104081868#1 -104081868#0 -104081861#1 -104081861#0 -73540480#2 -73540480#1 -73540480#0 -127588488 -127588489#2 -127588489#1 -127588489#0 -213546019#5 -213546019#4 -213546019#3 -213546019#2 -213546019#1 -213546019#0 -210328288 -73538114 -80776637 -49846076#11 11176415#0 11176415#1 213546021#2 80664630#0 80664630#1 215795047#0 215795047#1 215795047#2 215795047#3 215795047#4 215795047#5 215795047#6 51064594#0 51064594#1 43990508#0 43990508#1 43990508#2 43990508#3 43990508#4 -80659133#1 -80659133#0 11177800#0 11177800#1 44035018#0 44035018#1 11180285#0 -11180285#0 11180285#0 11180285#1 11194590#0 11194590#1 80659133#3 49847026 73538109#0 73538109#1 73538102 215671214#0 215671214#1 213546067 215885170 215885168 215885167 215885169 215885171 215885166 213546060 210328296 213546064#0 -213546064#0 -210328296 -73538114 -80776637 -49846076#11 -49846076#10 -49846076#9 -49846076#8 -49846076#7 -49846076#6 -49846076#5 -49846076#4 -49846076#3 -49846076#2 -213546030 213546046#2 213546046#3 74098641#1 74098641#2 11192207#0 11192207#1 11203589#0 11203589#1 67596637 67596638 213546030 49846076#2 49846076#3 49846076#4 49846076#5 49846076#6 49846076#7 49846076#8 49846076#9 49846076#10 49846076#11 80776637 73538114 210328288 213546019#0 -213546019#0 -210328288 -213546060 -215885166 -215885171 -215885169 -215885167 -215885168 -215885170 73541769#1 73541769#2 11185558#0"/>
    </vehicle>
    <vehicle id="2" depart="1040.00">
        <route edges="80659128#5 -80659106#8 -80659106#7 -80659106#6 -80659106#5 -80659106#4 -80659106#3 -80659106#2 -80659106#1 -80659106#0 80659133#0 80659133#1 80659133#2 80659133#3 49847026 73538109#0 73538109#1 73538102 215671204#0 215671204#1 53848098#0 53848098#1 53848099#0 -215671211#1 -215671211#0 -73542491 -157848808 157848808 73542491 -156772091#1 -156772091#0 156772091#0 -156772091#0 -73542497#1 -73542497#0 73542488 -73541769#2 -73541769#1 215885170 215885168 215885167 215885169 215885171 215885166 213546060 210328296 213546064#0 213546064#1 47026382 -11192348#1 11192348#1 11192348#2 11192348#3 -80776637 -49846076#11 -49846076#10 -49846076#9 -49846076#8 215795047#3 215795047#4 -11197189#12 -11197189#11 -11197189#10 -11197189#9 -11197189#8 -11197189#7 44035168#12 44035168#13 44035168#14 44035168#15 -11193647#6 -11193647#5 -11193647#4 -11193647#3 -11193647#2 -11193647#1 -11193647#0 11205456#0 11205456#1 11205456#2 11205456#3 11201609#0 11201609#1 11201609#2 11201609#3 11201609#4 11201609#5 11201609#6 80655317 80655316#0 80655316#1 -80664411#1 -80664411#0 -80659106#8 -80659106#7 -80659106#6 -80659106#5 -80659106#4 -80659106#3 -80659106#2 -80659106#1 -80659106#0 80659133#0 80659133#1 80659133#2 80659133#3 49847026 73538109#0 73538109#1 73538102 215671204#0 215671204#1 -215671204#1 -215671204#0 -73538102 -73538109#1 -73538109#0 -49847026 -80659133#3 -80659133#2 -80659133#1 -80659133#0 80659106#0"/>
    </vehicle>
    <vehicle id="3" depart="1060.00">
        <route edges="-157848809 157848809 -73540480#1 -73540480#0 -127588488 -127588489#2 -127588489#1 -127588489#0 -213546019#5 -213546019#4 -213546019#3 -213546019#2 -213546019#1 -213546019#0 -210328288 -73538114 -80776637 -49846076#11 -49846076#10 -49846076#9 -49846076#8 215795047#3 215795047#4 -11197189#12 -11197189#11 -11197189#10 -11197189#9 -11197189#8 -11197189#7 44035168#12 11204339#3 11204339#4 11204339#5 11204339#6 11204339#7 11204339#8 -11204339#8 47528851#0 47528851#1 47528851#2 11192510#0 11192510#1 49846076#0 49846076#1 49846076#2 49846076#3 49846076#4 -49846076#4 49846076#4 49846076#5 49846076#6 49846076#7 49846076#8 49846076#9 49846076#10 49846076#11 80776637 73538114 210328296 213546064#0 215885158#4 -11203462#2 -213546019#1 -213546019#0 -210328288 -213546060 -215885166 -215885171 -215885169 -215885167 -215885168 -215885170 -213546067 -215671214#1 -215671214#0 -213546066 -213546063#1 -215795020#2 11202784 73538113#2 -73538121#1 -73538121#0 -73538109#1 -73538109#0 -11193557#4 -11193557#3 -11193557#2 -11193557#1 -11193557#0 -47026378#1 -47026378#0 -215671208#2 -215671208#1 -215671208#0 11179409#4 11179409#5 11179409#6 47026379 -11197189#9 -11197189#8 -11197189#7 11197189#7 11197189#8 11197189#9 11197189#10 11197189#11 11197189#12 215795047#5 215795047#6 51064594#0 51064594#1 43990508#0 43990508#1 43990508#2 43990508#3 43990508#4 80659133#2 80659133#3 49847026 73538109#0 73538109#1 73538102 215671204#0 215671204#1 53848098#0 53848098#1 53848099#0 53848099#1 -104081868#1 -104081868#0 -104081861#1 156772091#3 156772091#4 156772091#5 11186209#0"/>
    </vehicle>
    <vehicle id="4" depart="1080.00">
        <route edges="11201609#3 11201609#4 11201609#5 11201609#6 80655317 80655316#0 80655316#1 -80664411#1 -80664411#0 -80659106#8 -80659106#7 -80659106#6 -80659106#5 -80659106#4 -80659106#3 -80659106#2 -80659106#1 -80659106#0 80659133#0 80659133#1 80659133#2 80659133#3 49847026 73538109#0 73538109#1 73538102 -213546066 -213546063#1 -213546063#0 -73540500#4 -73540500#3 -213546022#5 -213546022#4 73538120#2 73540483 -215486794#1 -215486794#0 215486794#0 73531003 -215486792#0 -215359982 -215359981#1 -215359981#0 -215359980#2 -215359980#1 -215359980#0 44034544 196818520 -104081862#0 -75459746#6 -75459746#5 -75459746#4 -75459746#3 213546043 210585136 210585137 -210585137 -210585136 -213546043 75459746#3 75459746#4 75459746#5 75459746#6 104081862#0 -196818520 -44034544 215359980#0 215359980#1 215359980#2 73540500#0 215359983#2 -215359983#2 73540500#1 73540500#2 73540500#3 73540500#4 213546063#0 213546063#1 213546066 215671204#0 215671204#1 53848098#0 -53848098#0 -215671204#1 -215671204#0 -73538102 -73538109#1 -73538109#0 -49847026 -80659133#3 -80659133#2 -80659133#1 -80659133#0 11177800#0 11177800#1 11177800#2 80664415#0 44035020#0 44035020#1 -11186453#1 -11186453#0 80659128#0"/>
    </vehicle>
    <vehicle id="5" depart="1100.00">
        <route edges="-157848803 -157848807 -213546039 73540480#2 104081861#0 104081861#1 104081868#0 104081868#1 75459746#0 75459746#1 75459746#2 213546043 210585136 210585137 -210585137 -210585136 -213546043 -75459746#2 156772057#0 -210584958#1 -210584958#0 127588518#1 11184651#0 -11184651#0 -127588518#1 -127588518#0 -127588523 -127588520 -104081868#1 -104081868#0 -104081861#1 -104081861#0 -73540480#2 -73540480#1 -73540480#0 -127588488 -127588489#2 -127588489#1 -127588489#0 -213546019#5 -213546019#4 -213546019#3 -213546019#2 -213546019#1 -213546019#0 -210328288 210328296 213546064#0 -213546064#0 -210328296 -73538114 -80776637 -49846076#11 -49846076#10 -49846076#9 -49846076#8 215795047#3 215795047#4 -11197189#12 -11197189#11 -11197189#10 -11197189#9 -11197189#8 -11197189#7 44035168#12 11204339#3 11204339#4 11204339#5 11204339#6 11204339#7 -11204339#7 -11204339#6 -11204339#5 -11204339#4 -11204339#3 44035168#13 44035168#14 44035168#15 11193647#7 11193647#8 11193647#9 11193647#10 215671208#0 215671208#1 215671208#2 51064594#0 51064594#1 43990508#0 43990508#1 43990508#2 43990508#3 43990508#4 80659133#2 80659133#3 49847026 -11193557#4"/>
    </vehicle>
    <vehicle id="6" depart="1120.00">
        <route edges="11182195#1 11192510#0 11192510#1 49846076#0 49846076#1 49846076#2 49846076#3 49846076#4 49846076#5 49846076#6 49846076#7 49846076#8 49846076#9 49846076#10 49846076#11 80776637 73538114 -213546060 -215885166 -215885171 215795058#0 11179939#1 -11179939#1 -215795058#0 215885171 215885166 213546060 -73538114 -80776637 -49846076#11 11176415#0 -215885158#0 -215795044 -47026383#1 -47026383#0 215795047#2 49846076#8 49846076#9 49846076#10 49846076#11 80776637 -73540498#4 -73540498#3 -73540498#2 -73540498#1 -73540498#0 -73541792 73541792 73541769#0 73541769#1 73541769#2 -73542488 -11196649 -67567167#2 -67567167#1 -67567167#0 67567167#0 67567167#1 67567167#2 11185663#0 11185663#1 11185663#2 -215885170 -213546067 -215671214#1 -215671214#0 -213546066 -213546063#1 -213546063#0 -73540500#4 -73540500#3 -73540500#2 -73540500#1 73540500#1 73540500#2 73540500#3 73540500#4 213546063#0 213546063#1 213546066 215671214#0 215671214#1 213546067 215885170 215885168 215885167 215885169 215885171 215885166 213546060 210328288 213546019#0 213546019#1 213546019#2 213546019#3 213546019#4 11190859 210585130 210585127 210585128 210585131"/>
    </vehicle>
    <vehicle id="7" depart="1140.00">
        <route edges="-49846076#0 49846076#0 11198835#0 11198835#1 127605025#0 127605025#1 127605026 11197189#2 11197189#3 11197189#4 11197189#5 11197189#6 11197189#7 11197189#8 11197189#9 11197189#10 11197189#11 11197189#12 215795047#5 215795047#6 51064594#0 51064594#1 43990508#0 43990508#1 43990508#2 43990508#3 43990508#4 80659133#2 80659133#3 49847026 73538109#0 73538109#1 73538102 215671214#0 215671214#1 213546067 215885170 215885168 215885167 215885169 215885171 215885166 213546060 210328288 213546019#0 213546019#1 213546019#2 213546019#3 213546019#4 213546019#5 127588489#0 127588489#1 210585119 210585120#0 -210585141 -11181664#1 11188446 -67561688#0 67561689 44075464#2 127588474 -213546019#5 11190859 210585130 210585127 210585128 210585131 210585132 44075496 73542494 43990411#0 43990411#1 43990411#2 43990411#3 43990411#4 -43990411#4 -43990411#3 -43990411#2 53848098#1 53848099#0 53848099#1 -104081868#1 -104081868#0 -104081861#1 -104081861#0 -73540480#2 -73540480#1 -73540480#0 -127588488 -127588489#2 210585119 -210585119 127588489#2 127588488 73540480#0 73540480#1 73540480#2 104081861#0 104081861#1 104081868#0 104081868#1 75459746#0 75459746#1 75459746#2 213546043 210585136 210585137 210585138 210585133 210585134 -210585134 -210585133 -210585138 -210585137 -210585136 -213546043 -75459746#2 -75459746#1 -75459746#0 -104081868#1 -104081868#0 -104081861#1 -104081861#0 -73540480#2 -73540480#1 -73540480#0 -127588488 -127588489#2 -127588489#1 -127588489#0 -213546019#5 -213546019#4 -213546019#3 -213546019#2 -213546019#1 -213546019#0 -210328288 210328296 213546064#0 -213546064#0"/>
    </vehicle>
    <vehicle id="9" depart="1180.00">
        <route edges="67569905#1 213546038#0 215359980#2 73540500#0 73540500#1 73540500#2 73540500#3 73540500#4 213546063#0 -215795020#2 -215795020#1 -215795020#0 -73538119#3 73538119#3 73538119#4 73538109#0 73538109#1 73538102 215671204#0 215671204#1 53848098#0 53848098#1 53848099#0 53848099#1 -104081868#1 -104081868#0 -104081861#1 -104081861#0 -73540480#2 -73540480#1 215795051#7 -215795051#7 73540480#1 73540480#2 104081861#0 104081861#1 104081868#0 104081868#1 -53848099#1 -53848099#0 -53848098#1 -53848098#0 -215671204#1 -11185558#1 11185558#1 -215671204#0 -73538102 -73538109#1 -73538109#0 -49847026 -80659133#3 -80659133#2 -80659133#1 -80659133#0 80659106#0 80659106#1 80659106#2 80659106#3 80659106#4 80659106#5 80659106#6 80659106#7 80659106#8 80664414#0 80664414#1 80664414#2 80664414#3 80664414#4 80664414#5 80664414#6 80664414#7 80664413 -11204339#7 -11204339#6 -11204339#5 -11204339#4 -11204339#3 44035168#13 44035168#14 44035168#15 11193647#7 11193647#8 11193647#9 11193647#10 215671208#0 215671208#1 215671208#2 51064594#0 51064594#1 43990508#0 43990508#1 43990508#2 43990508#3 43990508#4 80659133#2 80659133#3 49847026 73538109#0 73538109#1 73538102 215671204#0 215671204#1 53848098#0 53848098#1 53848099#0 53848099#1 75459746#0 75459746#1 75459746#2 75459746#3 75459746#4 75459746#5 75459746#6 104081862#0 -104081862#0 -75459746#6 -75459746#5 -75459746#4 -75459746#3 213546043"/>
    </vehicle>
    <vehicle id="11" depart="1220.00">
        <route edges="44075464#2 127588474 127588489#0 11197150 11197292 -73542499 73542491 -156772091#1 -156772091#0 43990411#0 43990411#1 -53848098#0 -215671204#1 -215671204#0 -73538102 -73538109#1 -73538109#0 -49847026 -80659133#3 -80659133#2 -80659133#1 -80659133#0 11177800#0 11177800#1 11177800#2 80664415#0 80664415#1 80664415#2 213546022#0 -213546022#0 -213546024 -213546026 47026380#1 80659128#0 80659128#1 80659128#2 80659128#3 80659128#4 80659128#5 80664414#0 80664414#1 80664414#2 80664414#3 80664414#4 80664414#5 80664414#6 80664414#7 80664413 11204339#8 -11204339#8 -11204339#7 -11204339#6 -11204339#5 -11204339#4 -11204339#3 44035168#13 44035168#14 44035168#15 11193647#7 11193647#8 11193647#9 11193647#10 -11179409#3 -11179409#2 -11179409#1 11179409#1 11179409#2 11179409#3 215671208#0 215671208#1 215671208#2 47026378#0 47026378#1 47026378#2 47026378#3 47026378#4 73541792 73541769#0 215885170 215885168 215885167 215885169 215885171 215885166 213546060 210328288 213546019#0 213546019#1 213546019#2 213546019#3 213546019#4 213546019#5 216298907#0 216298907#1 44075488 -156772091#0 43990411#0 43990411#1 -53848098#0 -215671204#1 215885102#0 215885102#1 73540484 67569904 67569905#0 67569905#1"/>
    </vehicle>
    <vehicle id="12" depart="1240.00">
        <route edges="11193647#5 11193647#6 11193647#7 11193647#8 11193647#9 11193647#10 215671208#0 215671208#1 215671208#2 51064594#0 51064594#1 43990508#0 43990508#1 43990508#2 43990508#3 43990508#4 80659133#2 80659133#3 49847026 73538109#0 73538109#1 73538102 215671204#0 215671204#1 53848098#0 53848098#1 53848099#0 53848099#1 75459746#0 75459746#1 75459746#2 213546043 210585136 210585137 210585138 -210585138 -210585137 -210585136 -213546043 -75459746#2 -75459746#1 -75459746#0 -104081868#1 -104081868#0 -104081861#1 -104081861#0 -73540480#2 -73540480#1 -73540480#0 -127588488 -127588489#2 -127588489#1 -127588489#0 -213546019#5 -213546019#4 -213546019#3 -213546019#2 11203462#2 -11203462#2 213546019#2 213546019#3 213546019#4 213546019#5 127588489#0 127588489#1 127588489#2 127588488 73540480#0 73540480#1 73540480#2 104081861#0 104081861#1 104081868#0 104081868#1 127588520 127588523 127588518#0 127588518#1 11184651#0 -11184651#0 -127588518#1 -127588518#0 -127588523 -127588520 -53848099#1 -53848099#0 -53848098#1 -53848098#0 -215671204#1 215885102#0 210585009 210585010 -43990411#2 -53848098#0 -215671204#1 -215671204#0 -73538102 -73538109#1 -73538109#0 -49847026 11189528#0 -11189528#0 -80659133#3 -80659133#2 -80659133#1 -80659133#0 80659106#0 80659106#1 80659106#2 80659106#3 80659106#4 80659106#5 80659106#6 80659106#7 80659106#8 80664414#0 80664414#1 80664414#2 80664414#3 80664414#4 80664414#5 80664414#6 80664414#7 80664413 47528851#0 47528851#1 47528851#2 74098641#0 74098641#1 74098641#2 74098641#3"/>
    </vehicle>
    <vehicle id="13" depart="1260.00">
        <route edges="67561689 44075464#2 127588474 127588489#0 127588489#1 127588489#2 127588488 73540480#0 73540480#1 73540480#2 104081861#0 104081861#1 104081868#0 104081868#1 127588520 127588523 127588518#0 127588518#1 127588518#2 127588518#3 -11179746 -127588518#2 -127588518#1 -127588518#0 -127588523 -127588520 -104081868#1 -104081868#0 -104081861#1 -104081861#0 -73540480#2 -73540480#1 -73540480#0 -127588488 -127588489#2 -127588489#1 -127588489#0 -213546019#5 -213546019#4 -213546019#3 -213546019#2 -213546019#1 -213546019#0 -210328288 -73538114 -80776637 -49846076#11 -49846076#10 -49846076#9 -49846076#8 215795047#3 215795047#4 -11197189#12 -11197189#11 -11197189#10 -11197189#9 -11197189#8 -11197189#7 -11197189#6 -11197189#5 -11197189#4 -11197189#3 -11197189#2 -11197189#1 -11197189#0 47528851#1 47528851#2 11192510#0 11192510#1 49846076#0 49846076#1 49846076#2 49846076#3 49846076#4 49846076#5 49846076#6 49846076#7 49846076#8 49846076#9 49846076#10 49846076#11 80776637 73538114 210328288 213546019#0 213546019#1 213546019#2 213546019#3 213546019#4 11190859 210585130 210585127 -210585127 -210585130 -11190859 213546019#5 127588489#0 127588489#1 127588489#2 127588488 73540480#0 73540480#1 73540480#2 104081861#0 104081861#1 104081868#0 104081868#1 75459746#0 75459746#1 75459746#2 75459746#3 75459746#4 75459746#5 44034414 210585014 210585013 210585012 -210585012 -210585013 -210585014 -44034414 -75459746#5 -75459746#4 -75459746#3 -75459746#2 -75459746#1 -75459746#0 -104081868#1 -104081868#0 -104081861#1 -104081861#0 -73540480#2 -73540480#1 -73540480#0 -127588488 -127588489#2 -127588489#1 -127588489#0 -213546019#5 -213546019#4 -213546019#3 -213546019#2 -213546019#1 -213546019#0 -210328288 -73538114 -80776637 -49846076#11 -49846076#10 -49846076#9 -49846076#8 -49846076#7 -49846076#6 -49846076#5 -49846076#4 -49846076#3 -49846076#2 -213546030 -67596638 -67596637 -11203589#1 11203589#1 67596637 67596638 213546030 49846076#2 49846076#3 49846076#4 49846076#5 49846076#6 49846076#7 49846076#8 49846076#9 49846076#10 49846076#11 80776637 73538114 210328288 213546019#0 213546019#1 213546019#2 213546019#3 213546019#4 213546019#5 127588489#0 127588489#1 127588489#2 127588488 73540480#0 73540480#1 73540480#2 104081861#0 104081861#1 104081868#0 104081868#1 75459746#0 75459746#1 75459746#2 75459746#3 75459746#4 75459746#5 44034414 210585014 210585013 210585012 -210585012"/>
    </vehicle>
    <vehicle id="14" depart="1280.00">
        <route edges="11204339#7 47528851#0 47528851#1 47528851#2 11192510#0 11192510#1 49846076#0 49846076#1 49846076#2 49846076#3 49846076#4 49846076#5 49846076#6 49846076#7 49846076#8 49846076#9 49846076#10 49846076#11 80776637 73538114 210328288 213546019#0 213546019#1 -213546019#1 -213546019#0 -210328288 -213546060 -215885166 -215885171 -215885169 -215885167 -215885168 -215885170 -213546067 -215671214#1 -215671214#0 -73538102 -73538109#1 -73538109#0 -49847026 11189528#0 11189528#1 -11180285#2 11180285#2 -11189528#1 -11189528#0 49847026 73538109#0 73538109#1 73538102 215671204#0 215671204#1 53848098#0 53848098#1 53848099#0 53848099#1 75459746#0 75459746#1 75459746#2 213546043 210585136 210585137 210585138 210585133 -210585133 -210585138 -210585137 -210585136 -213546043 -75459746#2 -75459746#1 -75459746#0 -53848099#1 -53848099#0 -53848098#1 -53848098#0 -215671204#1 -215671204#0 -73538102 -73538109#1 -73538109#0 -49847026 -80659133#3 -80659133#2 -80659133#1 -80659133#0 80659106#0 80659106#1 80659106#2 80659106#3 80659106#4 80659106#5 80659106#6 80659106#7 80659106#8 80664414#0 80664414#1 80664414#2 80664414#3 80664414#4 80664414#5 80664414#6 80664414#7 80664413 47528851#0 11197189#0 11197189#1 11197189#2 11197189#3 11197189#4 11197189#5 11197189#6 11197189#7 -11197189#7 11197189#7 11197189#8 11197189#9 11197189#10 11197189#11 11197189#12 215795047#5 215795047#6 51064594#0 51064594#1 43990508#0 43990508#1 43990508#2 43990508#3 43990508#4 80659133#2 80659133#3 49847026 73538109#0 73538109#1 73538102 215671204#0 215671204#1 53848098#0 53848098#1 53848099#0 53848099#1 127588520 127588523 127588518#0 127588518#1 127588518#2"/>
    </vehicle>
    <vehicle id="15" depart="1300.00">
        <route edges="80659106#6 -80659106#6 -80659106#5 -80659106#4 -80659106#3 -80659106#2 -80659106#1 -80659106#0 80659133#0 80659133#1 80659133#2 80659133#3 49847026 73538109#0 73538109#1 73538102 215671214#0 215671214#1 213546067 73541769#1 73541769#2 -73542488 -11196649 -67567167#2 -11181964#1 -215795051#0 -215795058#2 -215795058#1 -215795058#0 -215885169 -215885167 -215885168 -215885170 -73541769#0 -73541792 -47026378#4 -47026378#3 -47026378#2 -47026378#1 -47026378#0 -215671208#2 -215671208#1 -215671208#0 -11193647#10 -11193647#9 -11193647#8 -11193647#7 -11193647#6 -11193647#5 -11193647#4 -11193647#3 -11193647#2 -11193647#1 -11193647#0 11205456#0 11205456#1 11205456#2 11205456#3 11201609#0 11201609#1 11201609#2 11201609#3 11201609#4 11201609#5 11201609#6 80655317 80655316#0 80655316#1 -80664411#1 -80664411#0 -80659106#8 -80659106#7 -80659106#6 -80659106#5 -80659106#4 -80659106#3 -80659106#2 -80659106#1 -80659106#0 80659133#0 80659133#1 80659133#2 80659133#3 49847026 73538109#0 73538109#1 73538102 215671204#0 215671204#1 53848098#0 53848098#1 53848099#0 53848099#1 75459746#0 75459746#1 75459746#2 75459746#3 -75459746#3 -75459746#2 -75459746#1 -75459746#0 -53848099#1 -53848099#0 -53848098#1 -53848098#0 -215671204#1 -215671204#0 -73538102 -73538109#1 -73538109#0 -49847026 -80659133#3 -80659133#2 -80659133#1 -80659133#0 80659106#0 80659106#1 80659106#2 80659106#3 80659106#4 80659106#5 80659106#6 80659106#7 80659106#8 80664414#0 80664414#1 80664414#2 80664414#3 80664414#4 80664414#5 80664414#6 80664414#7 11205456#0 11205456#1 11205456#2 11205456#3 11201609#0 11201609#1 11201609#2 11201609#3 11201609#4 11201609#5 11201609#6 80655317 80655316#0 80655316#1 -80664411#1 -80664411#0 -80659106#8 -80659106#7 -80659106#6 -80659106#5 -80659106#4 -80659106#3 -80659106#2 -80659106#1 -80659106#0 80659133#0 80659133#1 80659133#2 80659133#3 49847026 73538109#0 73538109#1 73538102 215671204#0 215671204#1 53848098#0 53848098#1 53848099#0 53848099#1 -104081868#1 -104081868#0 -104081861#1 156772091#3 156772091#4 156772091#5 -156772091#5 -156772091#4 -156772091#3 -104081861#0 -73540480#2 -73540480#1 -73540480#0 -127588488 -127588489#2 210585119 210585120#0 210585120#1 210585110 210585122#0 -210585122#0"/>
    </vehicle>
    <vehicle id="17" depart="1340.00">
        <route edges="215795047#0 215795047#1 215795047#2 215795047#3 215795047#4 -11197189#12 -11197189#11 -11197189#10 -11197189#9 -11197189#8 -11197189#7 44035168#12 44035168#13 44035168#14 44035168#15 -11193647#6 -11193647#5 -11193647#4 -11193647#3 -11193647#2 -11193647#1 -11193647#0 11205456#0 11205456#1 11205456#2 11205456#3 11201609#0 11201609#1 11201609#2 11201609#3 11201609#4 11201609#5 11201609#6 -11201609#6 -11201609#5 -11201609#4 -11201609#3 -11201609#2 -11201609#1 -11201609#0 -11205456#3 -11205456#2 -11205456#1 -11205456#0 80664413 47528851#0 47528851#1 47528851#2 74098641#0 74098641#1 74098641#2 11192207#0 11192207#1 11203589#0 11203589#1 67596637 67596638 213546030 49846076#2 49846076#3 49846076#4 49846076#5 49846076#6 49846076#7 49846076#8 49846076#9 49846076#10 49846076#11 80776637 73538114 210328288 213546019#0 213546019#1 213546019#2 213546019#3 213546019#4 213546019#5 127588489#0 127588489#1 127588489#2 127588488 73540480#0 73540480#1 73540480#2 104081861#0 104081861#1 104081868#0 104081868#1 75459746#0 75459746#1 75459746#2 75459746#3 75459746#4 75459746#5 44034414 210585014 -210585014 -44034414 -75459746#5 -75459746#4 -75459746#3 -75459746#2 -75459746#1 -75459746#0 -104081868#1 -104081868#0 -104081861#1 -104081861#0 -73540480#2 -73540480#1 -73540480#0 -127588488 -127588489#2 210585119 210585120#0 -210585141 -11181664#1 11188446 -67561688#0 67561689 44075464#2 127588474 -213546019#5 -213546019#4 -213546019#3 -213546019#2 -213546019#1 -213546019#0 -210328288 -213546060 -215885166 -215885171 -215885169 -215885167 -215885168 -215885170 -213546067 -215671214#1 -215671214#0 -213546066 -213546063#1 -213546063#0 -73540500#4 -73540500#3 -213546022#5"/>
    </vehicle>
    <vehicle id="18" depart="1360.00">
        <route edges="213546021#0 80776632#2 80776632#3 80776637 73538114 210328288 213546019#0 213546019#1 213546019#2 213546019#3 213546019#4 213546019#5 127588489#0 127588489#1 127588489#2 127588488 73540480#0 73540480#1 73540480#2 104081861#0 104081861#1 104081868#0 104081868#1 127588520 127588523 127588518#0 -210584955 -11186209#1 -210585143 -210585142 -127605069 -104081868#0 -104081861#1 -104081861#0 -73540480#2 -73540480#1 -73540480#0 -127588488 -127588489#2 -127588489#1 -127588489#0 -213546019#5 -213546019#4 -213546019#3 -213546019#2 -213546019#1 -213546019#0 -210328288 -73538114 -80776637 -49846076#11 -49846076#10 -49846076#9 -49846076#8 -49846076#7 -49846076#6 -49846076#5 44035168#10 44035168#11 11197189#7 11197189#8 11197189#9 11197189#10 11197189#11 11197189#12 215795047#5 215795047#6 51064594#0 51064594#1 43990508#0 43990508#1 43990508#2 43990508#3 43990508#4 -80659133#1 -80659133#0 11177800#0 11177800#1 11177800#2 80664415#0 44035020#0 44035020#1 -11186453#1 -11186453#0 80659128#0 80659128#1 80659128#2 80659128#3 80659128#4 80659128#5 -80659106#8 -80659106#7 -80659106#6 -80659106#5 -80659106#4 -80659106#3 -80659106#2 -80659106#1 -80659106#0 80659133#0 80659133#1 80659133#2 80659133#3 49847026 73538109#0 73538109#1 73538102 215671204#0 215671204#1 53848098#0 53848098#1 53848099#0 53848099#1 -104081868#1 -104081868#0 -104081861#1 -104081861#0 -73540480#2 -73540480#1 215795051#7 43990406 213546018 11185659 157848802 157848809 -73540480#1 -73540480#0 -127588488 -127588489#2 -127588489#1 -127588489#0 -213546019#5 -213546019#4 -213546019#3 -213546019#2 -213546019#1 -213546019#0 -210328288 -73538114 -73540498#4 -73540498#3 -73540498#2"/>
    </vehicle>
    <vehicle id="21" depart="1420.00">
        <route edges="196818520 -104081862#0 -75459746#6 -75459746#5 -75459746#4 -75459746#3 -75459746#2 -75459746#1 -75459746#0 127588520 127588523 127588518#0 -210584955 -11186209#1 -210585143 -210585142 -127605069 -104081868#0 -104081861#1 -104081861#0 -73540480#2 -73540480#1 -73540480#0 -127588488 -127588489#2 210585119 210585120#0 -210585141 -11181664#1 11188446 -67561688#0 67561689 44075464#2 127588474 -213546019#5 -213546019#4 -213546019#3 11181964#0 11181964#1 67567167#2 11196649 73542488 -73541769#2 -73541769#1 215885170 215885168 215885167 215885169 215885171 215885166 213546060 -73538114 -80776637 -49846076#11 -49846076#10 -49846076#9 -49846076#8 -49846076#7 -49846076#6 -49846076#5 -49846076#4 -49846076#3 -49846076#2 -49846076#1 11198835#0 11198835#1 127605025#0 127605025#1 127605026 -11197189#1 -11197189#0 47528851#1 47528851#2 11192510#0 11192510#1 49846076#0 49846076#1 49846076#2 49846076#3 49846076#4 49846076#5 49846076#6 49846076#7 49846076#8 -49846076#8 215795047#3 215795047#4 215795047#5 215795047#6 51064594#0 51064594#1 43990508#0 43990508#1 43990508#2 43990508#3 43990508#4 -80659133#1 -80659133#0 11177800#0 11177800#1 11177800#2 80664415#0 80664415#1 80664415#2 213546022#0 213546022#1"/>
    </vehicle>
    <vehicle id="22" depart="1440.00">