<?xml version="1.0" encoding="UTF-8"?>

<!-- generated on Sun Jul  6 10:43:59 2014 by SUMO netconvert Version 0.20.0
<?xml version="1.0" encoding="UTF-8"?>

<configuration xmlns:xsi="http://www.w3.org/2001/XMLSchema-instance" xsi:noNamespaceSchemaLocation="http://sumo-sim.org/xsd/netconvertConfiguration.xsd">

    <input>
        <osm-files value="../sanfrancisco.osm"/>
    </input>

    <output>
        <plain-output-prefix value="sanfrancisco-plain"/>
    </output>

    <projection>
        <proj.utm value="true"/>
    </projection>

    <ramp_guessing>
        <ramps.guess value="true"/>
    </ramp_guessing>

    <edge_removal>
        <remove-edges.by-vclass value="rail_slow,rail_fast,bicycle,pedestrian"/>
        <remove-edges.isolated value="true"/>
    </edge_removal>

    <processing>
        <ignore-errors value="true"/>
        <junctions.join value="true"/>
    </processing>

    <report>
        <log value="netconvert.log"/>
    </report>

</configuration>
-->

<edges version="0.13" xmlns:xsi="http://www.w3.org/2001/XMLSchema-instance" xsi:noNamespaceSchemaLocation="http://sumo-sim.org/xsd/edges_file.xsd">
    <edge id="-133856361#0" from="65299668" to="65299663" priority="4" type="highway.residential" numLanes="1" speed="13.89"/>
    <edge id="-133856361#1" from="65299671" to="65299668" priority="4" type="highway.residential" numLanes="1" speed="13.89"/>
    <edge id="-133856361#2" from="65294048" to="65299671" priority="4" type="highway.residential" numLanes="1" speed="13.89"/>
    <edge id="-133856361#3" from="65299673" to="65294048" priority="4" type="highway.residential" numLanes="1" speed="13.89"/>
    <edge id="-133856361#4" from="65288315" to="65299673" priority="4" type="highway.residential" numLanes="1" speed="13.89"/>
    <edge id="-133856361#5" from="65299698" to="65288315" priority="4" type="highway.residential" numLanes="1" speed="13.89" shape="1586.63,424.35 1587.82,436.94 1575.20,631.16 1562.71,838.46 1549.41,1044.87 1537.02,1251.57 1525.29,1458.50 1512.19,1665.56 1499.80,1872.08 1487.37,2079.42"/>
    <edge id="-184501639#0" from="65288319" to="65358541" priority="4" type="highway.residential" numLanes="1" speed="13.89" shape="1298.62,2067.99 1311.28,1860.58 1323.87,1654.14 1336.50,1446.99 1349.12,1240.12 1361.72,1033.48 1374.31,826.99 1386.95,619.75 1399.57,412.91 1411.76,212.98 1424.40,5.92"/>
    <edge id="-184501639#1" from="65324769" to="65288319" priority="4" type="highway.residential" numLanes="1" speed="13.89"/>
    <edge id="-184501639#2" from="65294056" to="65324769" priority="4" type="highway.residential" numLanes="1" speed="13.89"/>
    <edge id="-184501639#3" from="65375019" to="65294056" priority="4" type="highway.residential" numLanes="1" speed="13.89"/>
    <edge id="-184501639#4" from="1583149363" to="65375019" priority="4" type="highway.residential" numLanes="1" speed="13.89"/>
    <edge id="-184501639#5" from="65316690" to="1583149363" priority="4" type="highway.residential" numLanes="1" speed="13.89"/>
    <edge id="-217621104#0" from="2269180969" to="65316706" priority="6" type="highway.tertiary" numLanes="1" speed="11.18"/>
    <edge id="-217621104#1" from="313883645" to="2269180969" priority="6" type="highway.tertiary" numLanes="1" speed="11.18" shape="10.61,2819.51 20.88,2820.15 30.20,2820.73 106.50,2825.47"/>
    <edge id="-217621104#2" from="65316711" to="313883645" priority="6" type="highway.tertiary" numLanes="1" speed="11.18"/>
    <edge id="-217622184#0" from="1583149403" to="65316690" priority="6" type="highway.tertiary" numLanes="1" speed="11.18"/>
    <edge id="-217622184#1" from="1583149389" to="1583149403" priority="6" type="highway.tertiary" numLanes="1" speed="11.18" shape="1214.73,2893.27 1225.27,2893.91 1239.89,2894.80"/>
    <edge id="-217622184#2" from="cluster_2381817274_258916758_65289443" to="1583149389" priority="6" type="highway.tertiary" numLanes="1" speed="11.18" shape="1208.23,2892.88 1214.73,2893.27"/>
    <edge id="-217622185#0" from="1583149387" to="65296083" priority="6" type="highway.tertiary" numLanes="1" speed="11.18"/>
    <edge id="-217622185#1" from="65316691" to="1583149387" priority="6" type="highway.tertiary" numLanes="1" speed="11.18"/>
    <edge id="-217622185#2" from="65316693" to="65316691" priority="6" type="highway.tertiary" numLanes="1" speed="11.18"/>
    <edge id="-217622185#3" from="65316694" to="65316693" priority="6" type="highway.tertiary" numLanes="1" speed="11.18" shape="870.36,2872.09 890.82,2873.50 965.60,2878.06"/>
    <edge id="-217622185#4" from="65316695" to="65316694" priority="6" type="highway.tertiary" numLanes="1" speed="11.18"/>
    <edge id="-217622185#5" from="65316696" to="65316695" priority="6" type="highway.tertiary" numLanes="1" speed="11.18"/>
    <edge id="-217622185#6" from="65296998" to="65316696" priority="6" type="highway.tertiary" numLanes="1" speed="11.18" shape="587.81,2855.03 613.80,2856.61 682.30,2860.78"/>
    <edge id="-217622185#7" from="65316698" to="65296998" priority="6" type="highway.tertiary" numLanes="1" speed="11.18"/>
    <edge id="-217622185#8" from="65316702" to="65316698" priority="6" type="highway.tertiary" numLanes="1" speed="11.18"/>
    <edge id="-217622185#9" from="65309754" to="65316702" priority="6" type="highway.tertiary" numLanes="1" speed="11.18" shape="303.43,2837.69 326.14,2839.07 400.25,2843.59"/>
    <edge id="-225806045#0" from="65288298" to="65288285" priority="7" type="highway.secondary" numLanes="2" speed="27.78" shape="2054.36,2113.78 2148.04,2119.47 2242.62,2125.20 2337.35,2130.94 2431.53,2136.66 2526.01,2142.39"/>
    <edge id="-225806045#1" from="65288302" to="65288298" priority="7" type="highway.secondary" numLanes="2" speed="27.78"/>
    <edge id="-225806045#10" from="65288319" to="65288317" priority="7" type="highway.secondary" numLanes="2" speed="27.78"/>
    <edge id="-225806045#11" from="cluster_2381817268_258916761_65288321" to="65288319" priority="7" type="highway.secondary" numLanes="2" speed="27.78" shape="1258.64,2065.58 1298.62,2067.99"/>
    <edge id="-225806045#2" from="65288304" to="65288302" priority="7" type="highway.secondary" numLanes="2" speed="27.78"/>
    <edge id="-225806045#3" from="2477311946" to="65288304" priority="7" type="highway.secondary" numLanes="2" speed="27.78"/>
    <edge id="-225806045#4" from="2477311941" to="2477311946" priority="7" type="highway.secondary" numLanes="2" speed="27.78"/>
    <edge id="-225806045#5" from="65288306" to="2477311941" priority="7" type="highway.secondary" numLanes="2" speed="27.78"/>
    <edge id="-225806045#6" from="65288308" to="65288306" priority="7" type="highway.secondary" numLanes="2" speed="27.78"/>
    <edge id="-225806045#7" from="65288311" to="65288308" priority="7" type="highway.secondary" numLanes="2" speed="27.78"/>
    <edge id="-225806045#8" from="65288315" to="65288311" priority="7" type="highway.secondary" numLanes="2" speed="27.78"/>
    <edge id="-225806045#9" from="65288317" to="65288315" priority="7" type="highway.secondary" numLanes="2" speed="27.78"/>
    <edge id="-225806046#0" from="65288350" to="65288349" priority="7" type="highway.secondary" numLanes="2" speed="27.78"/>
    <edge id="-225806046#1" from="65288353" to="65288350" priority="7" type="highway.secondary" numLanes="2" speed="27.78"/>
    <edge id="-225806054" from="65321257" to="65288349" priority="4" type="highway.residential" numLanes="1" speed="13.89"/>
    <edge id="-225840353#0" from="65309754" to="258912687" priority="4" type="highway.residential" numLanes="1" speed="13.89" shape="303.43,2837.69 290.97,3043.95 278.48,3248.81"/>
    <edge id="-225840353#1" from="65309756" to="65309754" priority="4" type="highway.residential" numLanes="1" speed="13.89"/>
    <edge id="-225840353#2" from="65294084" to="65309756" priority="4" type="highway.residential" numLanes="1" speed="13.89"/>
    <edge id="-225840353#3" from="65309759" to="65294084" priority="4" type="highway.residential" numLanes="1" speed="13.89"/>
    <edge id="-225840353#4" from="65288347" to="65309759" priority="4" type="highway.residential" numLanes="1" speed="13.89"/>
    <edge id="-225840353#5" from="65309767" to="65288347" priority="4" type="highway.residential" numLanes="1" speed="13.89" shape="391.92,1389.37 379.25,1597.15 366.68,1803.03 354.01,2010.87"/>
    <edge id="-237300267#0" from="65329560" to="65296086" priority="4" type="highway.residential" numLanes="1" speed="13.89"/>
    <edge id="-237300267#1" from="65341537" to="65329560" priority="4" type="highway.residential" numLanes="1" speed="13.89"/>
    <edge id="-237300267#10" from="65331021" to="65322149" priority="4" type="highway.residential" numLanes="1" speed="13.89"/>
    <edge id="-237300267#11" from="65320529" to="65331021" priority="4" type="highway.residential" numLanes="1" speed="13.89"/>
    <edge id="-237300267#2" from="65350548" to="65341537" priority="4" type="highway.residential" numLanes="1" speed="13.89"/>
    <edge id="-237300267#3" from="65342735" to="65350548" priority="4" type="highway.residential" numLanes="1" speed="13.89"/>
    <edge id="-237300267#4" from="65330004" to="65342735" priority="4" type="highway.residential" numLanes="1" speed="13.89"/>
    <edge id="-237300267#5" from="65297003" to="65330004" priority="4" type="highway.residential" numLanes="1" speed="13.89"/>
    <edge id="-237300267#6" from="65357343" to="65297003" priority="4" type="highway.residential" numLanes="1" speed="13.89"/>
    <edge id="-237300267#7" from="65366843" to="65357343" priority="4" type="highway.residential" numLanes="1" speed="13.89"/>
    <edge id="-237300267#8" from="65309756" to="65366843" priority="4" type="highway.residential" numLanes="1" speed="13.89"/>
    <edge id="-237300267#9" from="65322149" to="65309756" priority="4" type="highway.residential" numLanes="1" speed="13.89"/>
    <edge id="-237300276" from="cluster_258916773_65289471" to="65375019" priority="4" type="highway.residential" numLanes="1" speed="13.89" shape="1220.86,2685.54 1260.82,2687.99"/>
    <edge id="-239959638" from="2633060717" to="2477311942" priority="2" type="highway.service" numLanes="1" speed="5.56">
        <lane index="0" allow="delivery"/>
    </edge>
    <edge id="-27092233#0" from="65306587" to="297249139" priority="4" type="highway.residential" numLanes="1" speed="13.89" shape="2041.72,2321.95 2135.24,2327.70 2230.07,2333.54 2324.93,2339.36 2418.81,2345.15 2513.41,2350.97 2607.42,2356.75 2700.66,2362.50 2793.49,2368.22 2843.19,2371.28"/>
    <edge id="-27092233#1" from="65318524" to="65306587" priority="4" type="highway.residential" numLanes="1" speed="13.89"/>
    <edge id="-27092233#2" from="65324762" to="65318524" priority="4" type="highway.residential" numLanes="1" speed="13.89"/>
    <edge id="-27092233#3" from="65320127" to="65324762" priority="4" type="highway.residential" numLanes="1" speed="13.89"/>
    <edge id="-27092233#4" from="65307191" to="65320127" priority="4" type="highway.residential" numLanes="1" speed="13.89"/>
    <edge id="-27092233#5" from="65324764" to="65307191" priority="4" type="highway.residential" numLanes="1" speed="13.89"/>
    <edge id="-27092233#6" from="65299673" to="65324764" priority="4" type="highway.residential" numLanes="1" speed="13.89"/>
    <edge id="-27092233#7" from="65324767" to="65299673" priority="4" type="highway.residential" numLanes="1" speed="13.89"/>
    <edge id="-27092233#8" from="65324769" to="65324767" priority="4" type="highway.residential" numLanes="1" speed="13.89"/>
    <edge id="-27092233#9" from="cluster_258916801_65289489" to="65324769" priority="4" type="highway.residential" numLanes="1" speed="13.89" shape="1246.00,2273.05 1285.97,2275.51"/>
    <edge id="-28575463#0" from="65316704" to="65309754" priority="6" type="highway.tertiary" numLanes="1" speed="11.18"/>
    <edge id="-28575463#1" from="2269180925" to="65316704" priority="6" type="highway.tertiary" numLanes="1" speed="11.18"/>
    <edge id="-28575463#2" from="65316706" to="2269180925" priority="6" type="highway.tertiary" numLanes="1" speed="11.18"/>
    <edge id="-286265324#0" from="1583149392" to="cluster_2381817274_258916758_65289443" priority="6" type="highway.tertiary" numLanes="1" speed="11.18" shape="1184.08,2891.40 1194.51,2892.04"/>
    <edge id="-286265324#1" from="1583149395" to="1583149392" priority="6" type="highway.tertiary" numLanes="1" speed="11.18"/>
    <edge id="-286265324#2" from="65296083" to="1583149395" priority="6" type="highway.tertiary" numLanes="1" speed="11.18"/>
    <edge id="-286265326" from="65296086" to="cluster_258916773_65289471" priority="4" type="highway.residential" numLanes="1" speed="13.89" shape="1165.95,2682.26 1207.15,2684.70"/>
    <edge id="-286265327#0" from="65294061" to="cluster_2381817271_258916786_65289478" priority="4" type="highway.residential" numLanes="1" speed="13.89" shape="1179.61,2475.80 1219.74,2478.26"/>
    <edge id="-286265327#1" from="65294063" to="65294061" priority="4" type="highway.residential" numLanes="1" speed="13.89"/>
    <edge id="-286265327#10" from="65294088" to="65294084" priority="4" type="highway.residential" numLanes="1" speed="13.89"/>
    <edge id="-286265327#11" from="65294090" to="65294088" priority="4" type="highway.residential" numLanes="1" speed="13.89"/>
    <edge id="-286265327#12" from="65294093" to="65294090" priority="4" type="highway.residential" numLanes="1" speed="13.89"/>
    <edge id="-286265327#2" from="65294065" to="65294063" priority="4" type="highway.residential" numLanes="1" speed="13.89"/>
    <edge id="-286265327#3" from="65294067" to="65294065" priority="4" type="highway.residential" numLanes="1" speed="13.89"/>
    <edge id="-286265327#4" from="65294070" to="65294067" priority="4" type="highway.residential" numLanes="1" speed="13.89"/>
    <edge id="-286265327#5" from="65294072" to="65294070" priority="4" type="highway.residential" numLanes="1" speed="13.89"/>
    <edge id="-286265327#6" from="65294075" to="65294072" priority="4" type="highway.residential" numLanes="1" speed="13.89"/>
    <edge id="-286265327#7" from="65294078" to="65294075" priority="4" type="highway.residential" numLanes="1" speed="13.89"/>
    <edge id="-286265327#8" from="65294080" to="65294078" priority="4" type="highway.residential" numLanes="1" speed="13.89"/>
    <edge id="-286265327#9" from="65294084" to="65294080" priority="4" type="highway.residential" numLanes="1" speed="13.89"/>
    <edge id="-286265329#0" from="65296088" to="cluster_258916801_65289489" priority="4" type="highway.residential" numLanes="1" speed="13.89" shape="1192.06,2269.73 1232.30,2272.20"/>
    <edge id="-286265329#1" from="65324772" to="65296088" priority="4" type="highway.residential" numLanes="1" speed="13.89"/>
    <edge id="-286265329#10" from="65322152" to="65309759" priority="4" type="highway.residential" numLanes="1" speed="13.89"/>
    <edge id="-286265329#11" from="65324782" to="65322152" priority="4" type="highway.residential" numLanes="1" speed="13.89"/>
    <edge id="-286265329#12" from="65320531" to="65324782" priority="4" type="highway.residential" numLanes="1" speed="13.89"/>
    <edge id="-286265329#2" from="65324773" to="65324772" priority="4" type="highway.residential" numLanes="1" speed="13.89"/>
    <edge id="-286265329#3" from="65324774" to="65324773" priority="4" type="highway.residential" numLanes="1" speed="13.89"/>
    <edge id="-286265329#4" from="65324775" to="65324774" priority="4" type="highway.residential" numLanes="1" speed="13.89"/>
    <edge id="-286265329#5" from="65324777" to="65324775" priority="4" type="highway.residential" numLanes="1" speed="13.89"/>
    <edge id="-286265329#6" from="65297004" to="65324777" priority="4" type="highway.residential" numLanes="1" speed="13.89"/>
    <edge id="-286265329#7" from="65324778" to="65297004" priority="4" type="highway.residential" numLanes="1" speed="13.89"/>
    <edge id="-286265329#8" from="65324780" to="65324778" priority="4" type="highway.residential" numLanes="1" speed="13.89"/>
    <edge id="-286265329#9" from="65309759" to="65324780" priority="4" type="highway.residential" numLanes="1" speed="13.89"/>
    <edge id="-286265331#0" from="65288322" to="cluster_2381817268_258916761_65288321" priority="7" type="highway.secondary" numLanes="2" speed="27.78" shape="1204.59,2062.31 1244.95,2064.75"/>
    <edge id="-286265331#1" from="65288324" to="65288322" priority="7" type="highway.secondary" numLanes="2" speed="27.78"/>
    <edge id="-286265331#10" from="65288349" to="65288347" priority="7" type="highway.secondary" numLanes="2" speed="27.78"/>
    <edge id="-286265331#2" from="65288329" to="65288324" priority="7" type="highway.secondary" numLanes="2" speed="27.78"/>
    <edge id="-286265331#3" from="65288332" to="65288329" priority="7" type="highway.secondary" numLanes="2" speed="27.78"/>
    <edge id="-286265331#4" from="65288334" to="65288332" priority="7" type="highway.secondary" numLanes="2" speed="27.78"/>
    <edge id="-286265331#5" from="65288336" to="65288334" priority="7" type="highway.secondary" numLanes="2" speed="27.78"/>
    <edge id="-286265331#6" from="65288338" to="65288336" priority="7" type="highway.secondary" numLanes="2" speed="27.78"/>
    <edge id="-286265331#7" from="65288343" to="65288338" priority="7" type="highway.secondary" numLanes="2" speed="27.78"/>
    <edge id="-286265331#8" from="65288345" to="65288343" priority="7" type="highway.secondary" numLanes="2" speed="27.78"/>
    <edge id="-286265331#9" from="65288347" to="65288345" priority="7" type="highway.secondary" numLanes="2" speed="27.78"/>
    <edge id="-28809027#0" from="65316695" to="258912605" priority="4" type="highway.residential" numLanes="1" speed="13.89" shape="776.84,2866.55 764.28,3072.92 751.13,3278.01"/>
    <edge id="-28809027#1" from="65342735" to="65316695" priority="4" type="highway.residential" numLanes="1" speed="13.89"/>
    <edge id="-28809027#2" from="65294070" to="65342735" priority="4" type="highway.residential" numLanes="1" speed="13.89"/>
    <edge id="-28809027#3" from="65324775" to="65294070" priority="4" type="highway.residential" numLanes="1" speed="13.89"/>
    <edge id="-28809027#4" from="65288334" to="65324775" priority="4" type="highway.residential" numLanes="1" speed="13.89"/>
    <edge id="-28809027#5" from="65340970" to="65288334" priority="4" type="highway.residential" numLanes="1" speed="13.89" shape="925.93,384.34 915.44,591.20 902.83,798.19 890.23,1004.87 877.66,1211.40 865.06,1418.26 852.44,1625.32 839.86,1831.84 827.22,2039.48"/>
    <edge id="-28950263#0" from="1583149442" to="65355429" priority="4" type="highway.residential" numLanes="1" speed="13.89" shape="1247.55,2905.72 1236.24,3090.98 1235.59,3101.80"/>
    <edge id="-28950263#1" from="65316690" to="1583149442" priority="4" type="highway.residential" numLanes="1" speed="13.89"/>
    <edge id="-28950272#0" from="1583149433" to="65296079" priority="4" type="highway.residential" numLanes="1" speed="13.89" shape="1153.96,2900.58 1142.75,3086.06 1142.14,3096.07"/>
    <edge id="-28950272#1" from="65296083" to="1583149433" priority="4" type="highway.residential" numLanes="1" speed="13.89"/>
    <edge id="-28950272#2" from="1707906099" to="65296083" priority="4" type="highway.residential" numLanes="1" speed="13.89"/>
    <edge id="-28950272#3" from="65296086" to="1707906099" priority="4" type="highway.residential" numLanes="1" speed="13.89"/>
    <edge id="-28950272#4" from="65294061" to="65296086" priority="4" type="highway.residential" numLanes="1" speed="13.89"/>
    <edge id="-28950272#5" from="65296088" to="65294061" priority="4" type="highway.residential" numLanes="1" speed="13.89"/>
    <edge id="-28950272#6" from="65288322" to="65296088" priority="4" type="highway.residential" numLanes="1" speed="13.89"/>
    <edge id="-28950272#7" from="65296110" to="65288322" priority="4" type="highway.residential" numLanes="1" speed="13.89" shape="1329.18,0.00 1317.09,200.21 1304.59,407.09 1292.09,614.00 1279.57,821.21 1267.10,1027.73 1254.61,1234.37 1242.11,1441.22 1229.59,1648.42 1217.12,1854.84 1204.59,2062.31"/>
    <edge id="-32949491#0" from="65328472" to="65316679" priority="4" type="highway.residential" numLanes="1" speed="13.89"/>
    <edge id="-32949491#1" from="65294031" to="65328472" priority="4" type="highway.residential" numLanes="1" speed="13.89"/>
    <edge id="-32949491#2" from="65324762" to="65294031" priority="4" type="highway.residential" numLanes="1" speed="13.89"/>
    <edge id="-32949491#3" from="2477311942" to="65324762" priority="4" type="highway.residential" numLanes="1" speed="13.89"/>
    <edge id="-32949491#4" from="65288304" to="2477311942" priority="4" type="highway.residential" numLanes="1" speed="13.89"/>
    <edge id="-32949491#5" from="65328474" to="65288304" priority="4" type="highway.residential" numLanes="1" speed="13.89" shape="1903.15,1481.63 1890.55,1688.54 1876.48,1895.08 1864.69,2102.28"/>
    <edge id="-8916448#0" from="65296998" to="65296994" priority="4" type="highway.residential" numLanes="1" speed="13.89" shape="587.81,2855.03 576.07,3061.39 563.31,3266.14 562.74,3274.35"/>
    <edge id="-8916448#1" from="65297003" to="65296998" priority="4" type="highway.residential" numLanes="1" speed="13.89"/>
    <edge id="-8916448#2" from="65294075" to="65297003" priority="4" type="highway.residential" numLanes="1" speed="13.89"/>
    <edge id="-8916448#3" from="65297004" to="65294075" priority="4" type="highway.residential" numLanes="1" speed="13.89"/>
    <edge id="-8916448#4" from="65288338" to="65297004" priority="4" type="highway.residential" numLanes="1" speed="13.89"/>
    <edge id="-8916448#5" from="2630856848" to="65288338" priority="4" type="highway.residential" numLanes="1" speed="13.89" shape="741.89,33.56 748.76,52.20 751.78,60.40 752.82,63.20 754.49,69.62 755.41,76.44 755.55,83.49 751.28,156.04 750.65,165.74 751.52,176.49 739.44,373.07 726.84,579.79 713.62,786.63 701.42,993.42 688.60,1199.90 676.13,1406.72 663.38,1614.06 650.85,1820.33 638.17,2028.04"/>
    <edge id="-8916454" from="318303109" to="65297169" priority="2" type="highway.service" numLanes="1" speed="5.56" shape="1302.50,2811.81 1298.53,2849.07 1296.55,2857.05 1294.03,2898.11">
        <lane index="0" allow="delivery"/>
    </edge>
    <edge id="-8916908#0" from="65306583" to="65304386" priority="4" type="highway.residential" numLanes="1" speed="13.89" shape="2004.12,2941.50 1991.58,3148.20 1979.17,3352.88 1978.65,3361.49"/>
    <edge id="-8916908#1" from="65306585" to="65306583" priority="4" type="highway.residential" numLanes="1" speed="13.89"/>
    <edge id="-8916908#2" from="65294014" to="65306585" priority="4" type="highway.residential" numLanes="1" speed="13.89"/>
    <edge id="-8916908#3" from="65306587" to="65294014" priority="4" type="highway.residential" numLanes="1" speed="13.89"/>
    <edge id="-8916908#4" from="65288298" to="65306587" priority="4" type="highway.residential" numLanes="1" speed="13.89"/>
    <edge id="-8916908#5" from="65287789" to="65288298" priority="4" type="highway.residential" numLanes="1" speed="13.89" shape="2166.76,261.64 2162.60,330.05 2154.77,459.15 2142.24,665.56 2129.66,872.98 2117.13,1079.37 2104.58,1286.19 2092.01,1493.18 2079.47,1700.02 2066.92,1906.71 2054.36,2113.78"/>
    <edge id="-8916953#0" from="65307186" to="65304416" priority="4" type="highway.residential" numLanes="1" speed="13.89" shape="1626.75,2918.43 1614.22,3125.03 1601.80,3329.45 1601.31,3337.52"/>
    <edge id="-8916953#1" from="65307188" to="65307186" priority="4" type="highway.residential" numLanes="1" speed="13.89"/>
    <edge id="-8916953#2" from="65294038" to="65307188" priority="4" type="highway.residential" numLanes="1" speed="13.89"/>
    <edge id="-8916953#3" from="65307191" to="65294038" priority="4" type="highway.residential" numLanes="1" speed="13.89"/>
    <edge id="-8916953#4" from="65288308" to="65307191" priority="4" type="highway.residential" numLanes="1" speed="13.89"/>
    <edge id="-8916953#5" from="65307210" to="65288308" priority="4" type="highway.residential" numLanes="1" speed="13.89" shape="1777.50,436.03 1764.95,642.67 1752.36,850.03 1739.83,1056.43 1727.27,1263.17 1714.70,1470.10 1702.14,1677.09 1689.59,1883.66 1677.00,2090.92"/>
    <edge id="-8917377#0" from="65306583" to="65316043" priority="6" type="highway.tertiary" numLanes="1" speed="11.18" shape="2004.12,2941.50 2032.00,2943.20 2097.16,2947.18 2192.75,2953.03 2288.01,2958.86 2304.82,2959.88 2381.01,2964.54 2431.90,2967.67 2475.98,2970.36 2496.10,2971.60 2569.56,2976.09 2663.89,2981.86 2756.66,2987.55 2843.86,2992.88"/>
    <edge id="-8917377#1" from="65316676" to="65306583" priority="6" type="highway.tertiary" numLanes="1" speed="11.18"/>
    <edge id="-8917377#10" from="65316690" to="1583149398" priority="6" type="highway.tertiary" numLanes="1" speed="11.18"/>
    <edge id="-8917377#2" from="65316679" to="65316676" priority="6" type="highway.tertiary" numLanes="1" speed="11.18"/>
    <edge id="-8917377#3" from="65316685" to="65316679" priority="6" type="highway.tertiary" numLanes="1" speed="11.18" shape="1720.21,2924.15 1739.17,2925.30 1814.78,2929.92"/>
    <edge id="-8917377#4" from="65307186" to="65316685" priority="6" type="highway.tertiary" numLanes="1" speed="11.18"/>
    <edge id="-8917377#5" from="65316687" to="65307186" priority="6" type="highway.tertiary" numLanes="1" speed="11.18"/>
    <edge id="-8917377#6" from="65299668" to="65316687" priority="6" type="highway.tertiary" numLanes="1" speed="11.18" shape="1437.03,2906.88 1455.30,2907.96 1532.06,2912.65"/>
    <edge id="-8917377#7" from="65316689" to="65299668" priority="6" type="highway.tertiary" numLanes="1" speed="11.18"/>
    <edge id="-8917377#8" from="65297169" to="65316689" priority="6" type="highway.tertiary" numLanes="1" speed="11.18"/>
    <edge id="-8917377#9" from="1583149398" to="65297169" priority="6" type="highway.tertiary" numLanes="1" speed="11.18"/>
    <edge id="-8917472#0" from="65316676" to="65304390" priority="4" type="highway.residential" numLanes="1" speed="13.89" shape="1909.69,2935.72 1897.11,3142.40 1884.67,3346.84 1884.17,3355.04"/>
    <edge id="-8917472#1" from="65318522" to="65316676" priority="4" type="highway.residential" numLanes="1" speed="13.89"/>
    <edge id="-8917472#2" from="65294017" to="65318522" priority="4" type="highway.residential" numLanes="1" speed="13.89"/>
    <edge id="-8917472#3" from="65318524" to="65294017" priority="4" type="highway.residential" numLanes="1" speed="13.89"/>
    <edge id="-8917472#4" from="65288302" to="65318524" priority="4" type="highway.residential" numLanes="1" speed="13.89"/>
    <edge id="-8917472#5" from="65318546" to="65288302" priority="4" type="highway.residential" numLanes="1" speed="13.89" shape="2048.21,659.85 2035.58,867.26 2023.02,1073.65 2010.44,1280.45 1997.84,1487.42 1985.24,1694.28 1972.67,1900.94 1960.06,2108.06"/>
    <edge id="-8917536#0" from="65316685" to="65304399" priority="4" type="highway.residential" numLanes="1" speed="13.89" shape="1720.21,2924.15 1707.53,3130.76 1697.28,3335.37 1698.30,3343.31"/>
    <edge id="-8917536#1" from="65320125" to="65316685" priority="4" type="highway.residential" numLanes="1" speed="13.89"/>
    <edge id="-8917536#2" from="65294035" to="65320125" priority="4" type="highway.residential" numLanes="1" speed="13.89"/>
    <edge id="-8917536#3" from="65320127" to="65294035" priority="4" type="highway.residential" numLanes="1" speed="13.89"/>
    <edge id="-8917536#4" from="65288306" to="65320127" priority="4" type="highway.residential" numLanes="1" speed="13.89"/>
    <edge id="-8917536#5" from="65320154" to="65288306" priority="4" type="highway.residential" numLanes="1" speed="13.89" shape="1859.70,318.27 1862.74,354.56 1866.36,377.38 1872.51,413.81 1873.56,430.50 1871.99,441.82 1857.63,648.29 1845.50,855.70 1832.49,1062.07 1821.49,1268.92 1808.91,1475.86 1796.32,1682.81 1783.92,1889.42 1771.33,2096.63"/>
    <edge id="-8917645#0" from="65316704" to="65304514" priority="4" type="highway.residential" numLanes="1" speed="13.89" shape="209.85,2831.88 197.30,3038.21 184.88,3242.59 184.37,3251.06"/>
    <edge id="-8917645#1" from="65322149" to="65316704" priority="4" type="highway.residential" numLanes="1" speed="13.89"/>
    <edge id="-8917645#2" from="65294088" to="65322149" priority="4" type="highway.residential" numLanes="1" speed="13.89"/>
    <edge id="-8917645#3" from="65322152" to="65294088" priority="4" type="highway.residential" numLanes="1" speed="13.89"/>
    <edge id="-8917645#4" from="65288349" to="65322152" priority="4" type="highway.residential" numLanes="1" speed="13.89"/>
    <edge id="-8918255" from="65316679" to="65304394" priority="4" type="highway.residential" numLanes="1" speed="13.89" shape="1814.78,2929.92 1802.11,3136.57 1788.73,3341.03 1788.77,3349.13"/>
    <edge id="-8918509#0" from="65316691" to="65304454" priority="4" type="highway.residential" numLanes="1" speed="13.89" shape="1059.95,2883.82 1047.42,3090.27 1034.43,3294.00 1033.82,3304.44"/>
    <edge id="-8918509#1" from="65329560" to="65316691" priority="4" type="highway.residential" numLanes="1" speed="13.89"/>
    <edge id="-8918509#2" from="65294063" to="65329560" priority="4" type="highway.residential" numLanes="1" speed="13.89"/>
    <edge id="-8918509#3" from="65324772" to="65294063" priority="4" type="highway.residential" numLanes="1" speed="13.89"/>
    <edge id="-8918509#4" from="65288324" to="65324772" priority="4" type="highway.residential" numLanes="1" speed="13.89"/>
    <edge id="-8918509#5" from="65321240" to="65288324" priority="4" type="highway.residential" numLanes="1" speed="13.89"/>
    <edge id="-8918664#0" from="65316696" to="65304484" priority="4" type="highway.residential" numLanes="1" speed="13.89" shape="682.30,2860.78 670.50,3067.18 656.51,3272.02 656.07,3280.50"/>
    <edge id="-8918664#1" from="65330004" to="65316696" priority="4" type="highway.residential" numLanes="1" speed="13.89"/>