<?xml version="1.0" encoding="UTF-8"?>

<!-- generated on Fri Sep 19 08:45:03 2014 by SUMO duarouter Version 0.21.0
<?xml version="1.0" encoding="UTF-8"?>

<configuration xmlns:xsi="http://www.w3.org/2001/XMLSchema-instance" xsi:noNamespaceSchemaLocation="http://sumo-sim.org/xsd/duarouterConfiguration.xsd">

    <input>
        <net-file value="sanfrancisco.net.xml"/>
        <trip-files value="sanfrancisco.trips.xml"/>
    </input>

    <output>
        <output-file value="sanfrancisco.rou.xml"/>
    </output>

    <processing>
        <repair value="true"/>
    </processing>

</configuration>
-->

<routes xmlns:xsi="http://www.w3.org/2001/XMLSchema-instance" xsi:noNamespaceSchemaLocation="http://sumo-sim.org/xsd/routes_file.xsd">
    <vehicle id="0" depart="0.00">
        <route edges="8918934#2 -89802405#5 -89802405#4 8917536#3 -27092233#3 -27092233#2 -27092233#1 27092233#1"/>
    </vehicle>
    <vehicle id="1" depart="1.00">
        <route edges="28809027#1 28809027#2 28809027#3 28809027#4 -286265331#4 -286265331#3 -286265331#2 286265331#2"/>
    </vehicle>
    <vehicle id="2" depart="2.00">
        <route edges="-286265329#9 -286265329#8 -286265329#7 -286265329#6 -286265329#5 -286265329#4 -286265329#3 -286265329#2 -286265329#1 -286265329#0 286265334 286265336 286265340#0 286265340#1 -217622184#2 -217622184#1 -217622184#0 -28950263#1"/>
    </vehicle>
    <vehicle id="3" depart="3.00">
        <route edges="27092233#1 8917472#4 225806045#2 225806045#3 225806045#4 225806045#5 225806045#6 225806045#7 225806045#8 225806045#9 225806045#10 225806045#11 286265331#0 286265331#1 286265331#2 286265331#3 286265331#4 286265331#5 286265331#6 286265331#7 286265331#8 286265331#9 286265331#10 -8917645#4 -8917645#3 -8917645#2 -8917645#1 -8917645#0"/>
    </vehicle>
    <vehicle id="4" depart="4.00">
        <route edges="184501639#0 225806045#11 286265331#0 286265331#1 286265331#2 286265331#3 286265331#4 286265331#5 286265331#6 286265331#7 286265331#8 286265331#9 286265331#10 225806046#0 -8918851#6 -8918851#5"/>
    </vehicle>
    <vehicle id="5" depart="5.00">
        <route edges="-133856361#4 -27092233#6 -27092233#5 -8916953#3"/>
    </vehicle>
    <vehicle id="6" depart="6.00">
        <route edges="-225806045#1 225806045#1 225806045#2 225806045#3 225806045#4 225806045#5 225806045#6 225806045#7 225806045#8 225806045#9 225806045#10 225806045#11 286265331#0 286265331#1 286265331#2 286265331#3 286265331#4 286265331#5 286265331#6 286265331#7 286265331#8 286265331#9 225840353#5"/>
    </vehicle>
    <vehicle id="7" depart="7.00">
        <route edges="8917536#1 89802424#4 89802424#5 89802424#6 89802424#7 89802424#8 237300276 286265326 237300267#0 237300267#1 237300267#2 237300267#3 237300267#4 237300267#5 237300267#6 237300267#7 237300267#8 225840353#2"/>
    </vehicle>
    <vehicle id="8" depart="8.00">
        <route edges="286265329#6 -286265329#6 -8918664#3 -286265327#5 -286265327#4 -8920018#2 -237300267#2 -237300267#1 8918509#2"/>
    </vehicle>
    <vehicle id="9" depart="9.00">
        <route edges="286265331#6 -286265331#6 -286265331#5 -286265331#4 -286265331#3 -286265331#2 -286265331#1 -286265331#0 -225806045#11 -225806045#10 -225806045#9 -225806045#8 -225806045#7 -225806045#6 -225806045#5 -225806045#4 -225806045#3 -225806045#2 -225806045#1 -8916908#4 -8916908#3 -89802405#0"/>
    </vehicle>
    <vehicle id="10" depart="10.00">
        <route edges="286265329#7 8920538#4 -286265331#7 -286265331#6 -286265331#5 -286265331#4 -286265331#3 -286265331#2 -286265331#1 -286265331#0 -225806045#11 -225806045#10 -225806045#9 -225806045#8 -225806045#7 -225806045#6 -225806045#5 -225806045#4 -225806045#3 -32949491#4 -32949491#3 -32949491#2 -32949491#1 -32949491#0 8917377#3"/>
    </vehicle>
    <vehicle id="11" depart="11.00">
        <route edges="-8918851#6 -286265329#11 -286265329#10 -286265329#9 -286265329#8 -286265329#7 -8916448#3 -8916448#2"/>
    </vehicle>
    <vehicle id="12" depart="12.00">
        <route edges="-225806045#10 225806045#10 225806045#11 286265331#0 286265331#1 286265331#2 286265331#3 -8920018#4 8920018#4"/>
    </vehicle>
    <vehicle id="13" depart="13.00">
        <route edges="8920538#2 -8920538#2 -237300267#6 -237300267#5"/>
    </vehicle>
    <vehicle id="14" depart="14.00">
        <route edges="-8916953#3 89802405#5 89802405#6 89802405#7 89802405#8 89802405#9 286265327#0 286265327#1 286265327#2 286265327#3 286265327#4 286265327#5 286265327#6 286265327#7 286265327#8 286265327#9 -225840353#2"/>
    </vehicle>
    <vehicle id="15" depart="15.00">
        <route edges="89802424#2 89802424#3 89802424#4 89802424#5 89802424#6 89802424#7 89802424#8 -184501639#3"/>
    </vehicle>
    <vehicle id="16" depart="16.00">
        <route edges="89802424#8 237300276 286265338 286265333 286265335 -225806045#11 -225806045#10 8921182#5"/>
    </vehicle>
    <vehicle id="17" depart="17.00">
        <route edges="8917377#4 8917377#5 8917377#6 8917377#7 8917377#8 8917377#9 8917377#10 217622184#0 217622184#1 217622184#2 286265324#0 286265324#1 286265324#2 217622185#0 217622185#1 217622185#2 217622185#3 217622185#4 217622185#5 217622185#6 217622185#7 217622185#8 217622185#9 28575463#0 28575463#1 28575463#2 8918851#2 -8918851#2"/>
    </vehicle>
    <vehicle id="18" depart="18.00">
        <route edges="286265327#6 -286265327#6 -286265327#5 -286265327#4 -286265327#3 -286265327#2 -286265327#1 -286265327#0 286265336 286265340#0 286265340#1 -217622184#2 -217622184#1 -217622184#0 -8917377#10 8917377#10"/>
    </vehicle>
    <vehicle id="19" depart="19.00">
        <route edges="-8921182#1 8917377#8 8917377#9 8917377#10 217622184#0 217622184#1 217622184#2 286265324#0 286265324#1 286265324#2 217622185#0 217622185#1 217622185#2 217622185#3 -217622185#3"/>
    </vehicle>
    <vehicle id="20" depart="20.00">
        <route edges="-8916908#1 8916908#1 8916908#2 8916908#3 8916908#4 225806045#1 225806045#2 225806045#3 225806045#4 225806045#5 225806045#6 225806045#7 225806045#8 225806045#9 225806045#10 225806045#11 286265331#0 286265331#1 286265331#2 8919397#5"/>
    </vehicle>
    <vehicle id="21" depart="21.00">
        <route edges="-8918934#2 89802424#6 89802424#7 89802424#8 237300276 286265340#0 286265340#1 286265324#0 286265324#1 286265324#2 -28950272#1 -28950272#0"/>
    </vehicle>
    <vehicle id="22" depart="22.00">
        <route edges="28575463#2 -28575463#2 -28575463#1 -28575463#0 -217622185#9 -217622185#8 -217622185#7 -217622185#6 -217622185#5 -217622185#4 -217622185#3 -217622185#2 -217622185#1 -217622185#0 -286265324#2 -286265324#1 -286265324#0 -217622184#2 -217622184#1 -217622184#0 -8917377#10 -8917377#9 -8917377#8 -8921182#0"/>
    </vehicle>
    <vehicle id="23" depart="23.00">
        <route edges="237300267#9 -237300267#9 -237300267#8 -237300267#7 -237300267#6 -237300267#5 -237300267#4 -237300267#3 -237300267#2 -237300267#1 -237300267#0 -286265326 -237300276 -89802424#8 -89802424#7 -89802424#6 -8918934#1 -8917377#5"/>
    </vehicle>
    <vehicle id="24" depart="24.00">
        <route edges="8921354#4 -286265331#8 -286265331#7 -286265331#6 -286265331#5 -286265331#4 -286265331#3 -286265331#2 -8918509#4 -8918509#3 -8918509#2 -237300267#0"/>
    </vehicle>
    <vehicle id="25" depart="25.00">
        <route edges="-8919397#2 -237300267#1 -237300267#0 -286265326 286265340#0 286265340#1 -217622184#2 -217622184#1 -217622184#0 -184501639#5 184501639#5"/>
    </vehicle>
    <vehicle id="26" depart="26.00">
        <route edges="-8921182#5 -225806045#9 -225806045#8 -225806045#7 -225806045#6 -225806045#5 -225806045#4 -225806045#3 -225806045#2 -225806045#1 -8916908#4 -8916908#3 -8916908#2 -8916908#1 8916908#1"/>
    </vehicle>
    <vehicle id="27" depart="27.00">
        <route edges="-286265329#5 28809027#4 -286265331#4 -286265331#3 -286265331#2 -286265331#1 -286265331#0 -225806045#11 -225806045#10 -225806045#9 -225806045#8 -225806045#7 -225806045#6 -225806045#5 -225806045#4 -225806045#3 -32949491#4 -32949491#3 -32949491#2 -89802405#2"/>
    </vehicle>
    <vehicle id="28" depart="28.00">
        <route edges="-89802424#5 8916953#2 -89802405#4 8917536#3 -27092233#3 -32949491#2"/>
    </vehicle>
    <vehicle id="29" depart="29.00">
        <route edges="-184501639#2 27092233#9 286265335 286265331#0 286265331#1 286265331#2 286265331#3 286265331#4 286265331#5 286265331#6 286265331#7 286265331#8 286265331#9 286265331#10 225806046#0 -8918851#6 -8918851#5 -8918851#4 -8918851#3 -8918851#2 217621104#0 -217621104#0"/>
    </vehicle>
    <vehicle id="30" depart="30.00">
        <route edges="-217622185#8 8920538#1 8920538#2 8920538#3 8920538#4 8920538#5"/>
    </vehicle>
    <vehicle id="31" depart="31.00">
        <route edges="-28950272#3 28950272#3 237300267#0 237300267#1 237300267#2 237300267#3 -237300267#3"/>
    </vehicle>
    <vehicle id="32" depart="32.00">
        <route edges="-8918934#3 -8918934#2 89802424#6 89802424#7 89802424#8 184501639#4 -184501639#4"/>
    </vehicle>
    <vehicle id="33" depart="33.00">
        <route edges="8920538#0 8920538#1 -237300267#6 -237300267#5 -237300267#4"/>
    </vehicle>
    <vehicle id="34" depart="34.00">
        <route edges="237300267#8 225840353#2 225840353#3 225840353#4 -286265331#9 -286265331#8 -286265331#7 -286265331#6 -286265331#5 -286265331#4 -286265331#3 8919397#5"/>
    </vehicle>
    <vehicle id="35" depart="35.00">
        <route edges="-286265329#7 8916448#4 -286265331#6 -286265331#5 -286265331#4 -286265331#3 -286265331#2 -286265331#1 -286265331#0 -225806045#11 -225806045#10 -225806045#9 -133856361#4"/>
    </vehicle>
    <vehicle id="36" depart="36.00">
        <route edges="27092233#1 8917472#4 225806045#2 225806045#3 225806045#4 225806045#5 225806045#6 225806045#7 225806045#8 225806045#9 225806045#10 225806045#11 286265331#0 286265331#1 286265331#2 286265331#3 286265331#4 286265331#5 286265331#6 286265331#7 286265331#8 286265331#9 286265331#10 -8917645#4 -8917645#3 -8917645#2 237300267#10"/>
    </vehicle>
    <vehicle id="37" depart="37.00">
        <route edges="8918664#0 8918664#1 -237300267#4 -237300267#3 -237300267#2 -237300267#1 -237300267#0 -286265326 286265338 -89802405#9 -89802405#8 -89802405#7 -89802405#6 -8918934#2"/>
    </vehicle>
    <vehicle id="38" depart="38.00">
        <route edges="8916953#3 8916953#4 225806045#7 225806045#8 225806045#9 225806045#10 225806045#11 286265331#0 286265331#1 286265331#2 286265331#3 286265331#4 286265331#5 286265331#6 -286265331#6"/>
    </vehicle>
    <vehicle id="39" depart="39.00">
        <route edges="-225806045#3 -225806045#2 -225806045#1"/>
    </vehicle>
    <vehicle id="40" depart="40.00">
        <route edges="-237300267#8 8921354#2 8921354#3 8921354#4 -286265331#8 -286265331#7 -286265331#6 -286265331#5 -286265331#4 -286265331#3 -286265331#2 -286265331#1 -286265331#0 -225806045#11 -225806045#10 -225806045#9 -225806045#8 -225806045#7 -225806045#6 -225806045#5 -225806045#4 -225806045#3 -32949491#4 32949491#4"/>
    </vehicle>
    <vehicle id="41" depart="41.00">
        <route edges="-8919397#1 8919397#1 -237300267#1 -237300267#0 -286265326 286265338 -89802405#9 -89802405#8 -89802405#7 -89802405#6 -89802405#5 89802405#5"/>
    </vehicle>
    <vehicle id="42" depart="42.00">
        <route edges="8921182#2 8921182#3 8921182#4 -225806045#9 -225806045#8 -225806045#7 -225806045#6 -225806045#5 -225806045#4 -225806045#3 -225806045#2 -225806045#1 -225806045#0"/>
    </vehicle>
    <vehicle id="43" depart="43.00">
        <route edges="286265327#0 28950272#5 286265329#1 286265329#2"/>
    </vehicle>
    <vehicle id="44" depart="44.00">
        <route edges="8918934#4 -8918934#4 -8918934#3 -8918934#2 -8918934#1 8917377#6"/>
    </vehicle>
    <vehicle id="45" depart="45.00">
        <route edges="184501639#3 -89802424#8 -89802424#7 -89802424#6 -89802424#5 8916953#2 -89802405#4 8917536#3 -27092233#3 -27092233#2 -27092233#1 8916908#4"/>
    </vehicle>
    <vehicle id="46" depart="46.00">
        <route edges="-8918509#2 -237300267#0 -286265326 286265338 286265333 286265335 -225806045#11 -225806045#10 -225806045#9 -225806045#8 -225806045#7 -225806045#6 -225806045#5 -225806045#4 -225806045#3 -225806045#2 -225806045#1 -8916908#4"/>
    </vehicle>
    <vehicle id="47" depart="47.00">
        <route edges="-286265331#0 -225806045#11 -225806045#10 -225806045#9 -225806045#8 -225806045#7 -225806045#6 -8917536#4 -8917536#3 -8917536#2 -89802424#3"/>
    </vehicle>
    <vehicle id="48" depart="48.00">
        <route edges="8917645#3 -8917645#3 -8917645#2 237300267#10"/>
    </vehicle>
    <vehicle id="49" depart="49.00">
        <route edges="8916448#0 8916448#1 -237300267#5 -237300267#4 -237300267#3 -237300267#2 -237300267#1 -237300267#0 -286265326 286265338 286265333 -27092233#9 -27092233#8 -27092233#7 27092233#7"/>
    </vehicle>
    <vehicle id="50" depart="50.00">
        <route edges="286265324#0 -286265324#0 286265339#0 286265339#1 286265338 286265333 -27092233#9"/>
    </vehicle>
    <vehicle id="51" depart="51.00">
        <route edges="8917377#5 8918934#1 89802424#6 89802424#7 89802424#8 237300276 286265338 286265327#0 286265327#1 286265327#2 286265327#3 286265327#4 286265327#5 -8918664#2"/>
    </vehicle>
    <vehicle id="52" depart="52.00">
        <route edges="89802405#1 8917472#3 8917472#4 225806045#2 -32949491#4"/>
    </vehicle>
    <vehicle id="53" depart="53.00">
        <route edges="225806045#10 225806045#11 286265331#0 286265331#1 286265331#2 286265331#3 286265331#4 286265331#5 -8918664#4 -286265329#5"/>
    </vehicle>
    <vehicle id="54" depart="54.00">
        <route edges="-286265324#0 -217622184#2 -217622184#1 -217622184#0 -8917377#10 -8917377#9 -8917377#8"/>
    </vehicle>
    <vehicle id="55" depart="55.00">
        <route edges="8916448#3 -8916448#3 -8916448#2 237300267#6 237300267#7 -8921354#1 217622185#9"/>
    </vehicle>
    <vehicle id="56" depart="56.00">
        <route edges="286265331#6 -286265331#6 -286265331#5 -286265331#4 -286265331#3 -286265331#2 -8918509#4 -8918509#3"/>
    </vehicle>
    <vehicle id="57" depart="57.00">
        <route edges="-286265331#7 -286265331#6 -286265331#5 -286265331#4 -286265331#3 -286265331#2 -286265331#1 -286265331#0 -225806045#11 -225806045#10 -225806045#9 -225806045#8 -225806045#7 -8916953#4"/>
    </vehicle>
    <vehicle id="58" depart="58.00">
        <route edges="-8917472#1 8917472#1 89802424#2 32949491#1 32949491#2 32949491#3 -32949491#3"/>
    </vehicle>
    <vehicle id="59" depart="59.00">
        <route edges="-225806045#11 -225806045#10 -8921182#4 -8921182#3 -8921182#2"/>
    </vehicle>
    <vehicle id="60" depart="60.00">
        <route edges="-286265327#1 -286265327#0 286265336 -237300276 -89802424#8 -89802424#7 -89802424#6 -89802424#5 -8916953#1"/>
    </vehicle>
    <vehicle id="61" depart="61.00">
        <route edges="237300267#5 -237300267#5 -237300267#4 -237300267#3 -237300267#2 -237300267#1 -237300267#0 -286265326 -237300276 -89802424#8 -89802424#7 -89802424#6 -89802424#5 -89802424#4 -89802424#3 -89802424#2 -89802424#1 -8916908#1 8916908#1"/>
    </vehicle>
    <vehicle id="62" depart="62.00">
        <route edges="8917377#1 8917377#2 8917377#3 8917377#4 8917377#5 8917377#6 8917377#7 8917377#8 8917377#9 8917377#10 217622184#0 217622184#1 217622184#2 286265324#0 286265324#1 286265324#2 217622185#0 217622185#1 217622185#2 217622185#3 217622185#4 217622185#5 217622185#6 217622185#7 217622185#8 217622185#9 28575463#0 28575463#1 28575463#2 217621104#0 217621104#1 217621104#2"/>
    </vehicle>
    <vehicle id="63" depart="63.00">
        <route edges="225806045#9 -225806045#9 -225806045#8 -225806045#7 -225806045#6 -225806045#5 -225806045#4 -225806045#3 -225806045#2 -225806045#1 8916908#5"/>
    </vehicle>
    <vehicle id="64" depart="64.00">
        <route edges="8917377#9 8917377#10 217622184#0 217622184#1 217622184#2 286265339#0 286265339#1 286265338 286265333 286265329#0 -28950272#5"/>
    </vehicle>
    <vehicle id="65" depart="65.00">
        <route edges="89802405#7 89802405#8 89802405#9 286265327#0 286265327#1 286265327#2 286265327#3 286265327#4 286265327#5 286265327#6 286265327#7 286265327#8 8921354#3"/>
    </vehicle>
    <vehicle id="66" depart="66.00">
        <route edges="-225840353#5 -286265331#9 -286265331#8 -286265331#7 -286265331#6 -286265331#5 -286265331#4 -286265331#3 -286265331#2 -286265331#1 -286265331#0 -225806045#11 -225806045#10 -225806045#9 -133856361#4 -133856361#3 -133856361#2 -133856361#1 133856361#1"/>
    </vehicle>
    <vehicle id="67" depart="67.00">
        <route edges="286265324#1 -286265324#1 -286265324#0 -217622184#2 -217622184#1 -217622184#0 -8917377#10 -8917377#9 -8917377#8 -8917377#7 -8917377#6 -8917377#5 8916953#1"/>
    </vehicle>
    <vehicle id="68" depart="68.00">
        <route edges="28950272#5 -286265329#0 286265334 286265336 286265340#0 286265340#1 -217622184#2 -217622184#1 -217622184#0 -184501639#5"/>
    </vehicle>
    <vehicle id="69" depart="69.00">
        <route edges="8918934#1 89802424#6 89802424#7 89802424#8 237300276 286265326 237300267#0 237300267#1 8919397#2"/>
    </vehicle>
    <vehicle id="70" depart="70.00">
        <route edges="-8918664#1 8918664#1 -237300267#4 -237300267#3 -237300267#2 -237300267#1 -237300267#0 -286265326 -237300276 -89802424#8 -89802424#7 89802424#7"/>
    </vehicle>
    <vehicle id="71" depart="71.00">
        <route edges="-28809027#1 28809027#1 28809027#2 286265327#5 8918664#3 286265329#6 286265329#7 286265329#8 286265329#9 286265329#10 -286265329#10"/>
    </vehicle>
    <vehicle id="72" depart="72.00">
        <route edges="-8917472#4 8917472#4 225806045#2 32949491#5"/>
    </vehicle>
    <vehicle id="73" depart="73.00">
        <route edges="8917472#2 89802405#2 89802405#3 89802405#4 89802405#5 89802405#6 89802405#7 89802405#8 89802405#9 286265336 286265326 237300267#0 237300267#1 237300267#2 237300267#3 237300267#4 237300267#5 237300267#6 237300267#7 237300267#8 237300267#9 237300267#10 8918851#4"/>
    </vehicle>
    <vehicle id="74" depart="74.00">
        <route edges="28575463#0 8917645#1 -237300267#9 225840353#2 -225840353#2"/>
    </vehicle>
    <vehicle id="75" depart="75.00">
        <route edges="8918851#4 -286265327#11 -286265327#10 -286265327#9 -286265327#8 -286265327#7 -286265327#6 -286265327#5 -286265327#4 -286265327#3 -286265327#2 -286265327#1 -286265327#0 286265336 -237300276 -89802424#8 -89802424#7 -89802424#6 -89802424#5 -89802424#4 -89802424#3 -89802424#2 -8917472#1 8917472#1"/>
    </vehicle>
    <vehicle id="76" depart="76.00">
        <route edges="8919397#2 8919397#3 8919397#4 -286265331#2 -286265331#1 286265331#1"/>
    </vehicle>
    <vehicle id="77" depart="77.00">
        <route edges="286265331#1 -286265331#1 -286265331#0 286265337 286265334 286265336 286265340#0 286265340#1 286265324#0 286265324#1 286265324#2 28950272#2 -28950272#2"/>
    </vehicle>
    <vehicle id="78" depart="78.00">
        <route edges="8917377#6 133856361#1 89802424#7 89802424#8 237300276 286265338 286265336"/>
    </vehicle>
    <vehicle id="79" depart="79.00">
        <route edges="-8918851#1 8918851#1 8918851#2 8918851#3 8918851#4 8918851#5 -286265329#11 -286265329#10 -286265329#9 -286265329#8 -286265329#7 -286265329#6 -286265329#5"/>
    </vehicle>
    <vehicle id="80" depart="80.00">
        <route edges="-286265331#0 286265331#0 286265331#1 286265331#2 286265331#3 286265331#4 286265331#5 286265331#6 286265331#7 286265331#8 286265331#9 286265331#10 225806046#0 -8918851#6 -8918851#5 -8918851#4"/>
    </vehicle>
    <vehicle id="81" depart="81.00">
        <route edges="-8921182#1 8921182#1 -89802424#7 133856361#2 -133856361#2"/>
    </vehicle>
    <vehicle id="82" depart="82.00">
        <route edges="-225806046#1 -225806046#0 -286265331#10 -286265331#9 -286265331#8 -286265331#7 -286265331#6 -286265331#5 -286265331#4 -286265331#3 -286265331#2 -286265331#1 -286265331#0 286265337 286265334 286265336 286265340#0 286265340#1 -217622184#2 -217622184#1 -217622184#0 -8917377#10"/>
    </vehicle>
    <vehicle id="83" depart="83.00">
        <route edges="286265334 -89802405#9 -89802405#8 -89802405#7 -89802405#6 -89802405#5 -89802405#4 -89802405#3 -32949491#1"/>
    </vehicle>
    <vehicle id="84" depart="84.00">
        <route edges="225840353#0 225840353#1 225840353#2 -286265327#9 -286265327#8 -286265327#7"/>
    </vehicle>
    <vehicle id="85" depart="85.00">
        <route edges="-217621104#1 -217621104#0 8918851#2 8918851#3 -237300267#10 -237300267#9 -237300267#8 -237300267#7 -237300267#6 8916448#2 -286265327#6 -286265327#5 -286265327#4 8920018#3 -286265329#3 -286265329#2"/>
    </vehicle>
    <vehicle id="86" depart="86.00">
        <route edges="-8916448#4 -286265329#6 -8918664#3 -286265327#5 -286265327#4 -8920018#2 -237300267#2 -237300267#1 -237300267#0 -28950272#3 28950272#3"/>
    </vehicle>
    <vehicle id="87" depart="87.00">
        <route edges="286265329#6 8916448#4 -286265331#6 -286265331#5 -286265331#4 -286265331#3 -286265331#2 -286265331#1 -286265331#0 -225806045#11 -225806045#10 -225806045#9 -225806045#8 -225806045#7 -225806045#6 -225806045#5 -225806045#4 -225806045#3 -225806045#2 -8917472#4 -8917472#3 89802405#2"/>
    </vehicle>
    <vehicle id="88" depart="88.00">
        <route edges="8917645#0 8917645#1 -237300267#9 -237300267#8 -237300267#7 -237300267#6 -237300267#5 -237300267#4 -237300267#3 -237300267#2 -237300267#1 -237300267#0 -286265326 286265338 -89802405#9 -89802405#8 -89802405#7 -89802405#6 89802405#6"/>
    </vehicle>
    <vehicle id="89" depart="89.00">
        <route edges="27092233#6 27092233#7 27092233#8 27092233#9 286265334 286265336 286265340#0 286265340#1 286265324#0 286265324#1 286265324#2"/>
    </vehicle>
    <vehicle id="90" depart="90.00">
        <route edges="-286265329#12 -286265329#11 -286265329#10 -286265329#9 -286265329#8 -286265329#7 -286265329#6 -286265329#5 -286265329#4 -286265329#3"/>
    </vehicle>
    <vehicle id="91" depart="91.00">
        <route edges="-8917472#2 89802424#2 89802424#3 89802424#4 89802424#5 89802424#6 89802424#7 89802424#8 184501639#4 184501639#5 -28950263#1 28950263#1"/>
    </vehicle>
    <vehicle id="92" depart="92.00">
        <route edges="-8917536#5 -225806045#5 -225806045#4 -225806045#3 -225806045#2 -225806045#1 -8916908#4 -8916908#3 89802405#1"/>
    </vehicle>
    <vehicle id="93" depart="93.00">
        <route edges="8916953#1 89802424#5 89802424#6 89802424#7 89802424#8 237300276 286265340#0 286265340#1"/>
    </vehicle>
    <vehicle id="94" depart="94.00">
        <route edges="8920018#1 -237300267#2 -8919397#1 8919397#1"/>
    </vehicle>
    <vehicle id="95" depart="95.00">
        <route edges="-89802424#7 89802424#7 89802424#8 237300276 286265326 237300267#0 237300267#1 237300267#2 237300267#3 237300267#4 -8918664#1 -8918664#0"/>
    </vehicle>
    <vehicle id="96" depart="96.00">
        <route edges="-28950272#2 -286265324#2 -286265324#1 -286265324#0 286265339#0 286265339#1 -237300276 -89802424#8 -89802424#7 -89802424#6 8918934#2"/>
    </vehicle>
    <vehicle id="97" depart="97.00">
        <route edges="103755327#1 286265339#0 286265339#1 286265338 286265333 286265335 286265331#0 286265331#1 286265331#2 -286265331#2"/>
    </vehicle>
    <vehicle id="98" depart="98.00">
        <route edges="28950272#5 28950272#6 286265331#1 286265331#2 286265331#3 -8920018#4"/>
    </vehicle>
    <vehicle id="99" depart="99.00">
        <route edges="89802405#0 89802405#1 89802405#2 89802405#3 89802405#4 89802405#5 89802405#6 89802405#7 89802405#8 89802405#9 286265336 286265340#0 286265340#1 286265339#0 286265339#1"/>
    </vehicle>
    <vehicle id="100" depart="100.00">
        <route edges="-8917472#2 89802424#2 89802424#3 89802424#4 89802424#5 89802424#6 89802424#7 89802424#8 237300276 286265326 237300267#0 237300267#1 237300267#2 237300267#3 237300267#4 237300267#5 237300267#6 237300267#7 237300267#8 -225840353#1 -225840353#0"/>
    </vehicle>
    <vehicle id="101" depart="101.00">
        <route edges="8920018#1 8920018#2 286265327#4"/>
    </vehicle>
    <vehicle id="102" depart="102.00">
        <route edges="-225840353#5 -286265331#9 -286265331#8 -286265331#7 -286265331#6 -286265331#5 -286265331#4 -286265331#3 -286265331#2 -286265331#1 -286265331#0 -225806045#11 -225806045#10 -225806045#9 -225806045#8 -225806045#7 -225806045#6 -8917536#4 27092233#4"/>
    </vehicle>
    <vehicle id="103" depart="103.00">
        <route edges="-89802424#5 89802424#5 89802424#6 89802424#7 89802424#8 237300276 286265338 286265333 286265329#0 286265329#1 286265329#2 286265329#3 286265329#4 286265329#5 -8918664#3"/>
    </vehicle>
    <vehicle id="104" depart="104.00">
        <route edges="286265329#11 8918851#6 -225806046#0 -286265331#10 -286265331#9 -286265331#8 -286265331#7 -286265331#6 -286265331#5 -286265331#4 -286265331#3 -286265331#2 -286265331#1 -286265331#0 286265337 286265334 286265336 286265340#0 286265340#1 286265324#0 286265324#1 286265324#2 217622185#0 -217622185#0"/>
    </vehicle>
    <vehicle id="105" depart="105.00">
        <route edges="28809027#3 286265329#5 286265329#6 286265329#7 286265329#8 286265329#9 286265329#10 286265329#11 286265329#12"/>
    </vehicle>
    <vehicle id="106" depart="106.00">
        <route edges="8916908#2 89802405#1 89802405#2 89802405#3 89802405#4 89802405#5 89802405#6 89802405#7 89802405#8 89802405#9 286265336 286265326 237300267#0 237300267#1"/>
    </vehicle>
    <vehicle id="107" depart="107.00">
        <route edges="286265331#7 -286265331#7 -286265331#6 -8918664#4 -8918664#3 -8918664#2"/>
    </vehicle>
    <vehicle id="108" depart="108.00">
        <route edges="-89802405#9 -89802405#8 -89802405#7 89802405#7"/>
    </vehicle>
    <vehicle id="109" depart="109.00">
        <route edges="28950272#6 286265331#1 286265331#2 286265331#3 286265331#4 286265331#5 286265331#6 286265331#7 286265331#8 -8921354#4 -8921354#3 8921354#3"/>
    </vehicle>
    <vehicle id="110" depart="110.00">
        <route edges="-286265331#8 -286265331#7 -286265331#6 -286265331#5 -286265331#4 -286265331#3 -286265331#2 -286265331#1 -28950272#6 -28950272#5 286265327#1"/>
    </vehicle>
    <vehicle id="111" depart="111.00">
        <route edges="-286265331#3 -286265331#2 -8918509#4 -8918509#3 -8918509#2 -8918509#1 -8918509#0"/>
    </vehicle>
    <vehicle id="112" depart="112.00">
        <route edges="-217622185#3 8919397#1 -237300267#1 -237300267#0 -286265326 -237300276 184501639#4"/>
    </vehicle>
    <vehicle id="113" depart="113.00">
        <route edges="-8917377#9 8917377#9 8917377#10 217622184#0 217622184#1 217622184#2 286265339#0 286265339#1 286265338 286265327#0 286265327#1 286265327#2 286265327#3"/>
    </vehicle>
    <vehicle id="114" depart="114.00">
        <route edges="8918509#3 8918509#4 -286265331#1 -286265331#0 -225806045#11 -225806045#10 -225806045#9 -225806045#8 225806045#8"/>
    </vehicle>
    <vehicle id="115" depart="115.00">
        <route edges="-184501639#5 -184501639#4 -89802424#8 -89802424#7 133856361#2 89802405#7"/>
    </vehicle>
    <vehicle id="116" depart="116.00">
        <route edges="286265339#1 286265340#0 286265340#1 -217622184#2 -217622184#1 -217622184#0 -8917377#10 8917377#10"/>
    </vehicle>
    <vehicle id="117" depart="117.00">
        <route edges="-286265331#2 286265331#2 -8919397#4 -8919397#3 -8919397#2 8919397#2"/>
    </vehicle>
    <vehicle id="118" depart="118.00">
        <route edges="286265327#5 -286265327#5 -286265327#4 -286265327#3 -286265327#2 -286265327#1 -286265327#0 286265336 -237300276 -89802424#8 -89802424#7 -89802424#6 -89802424#5 -89802424#4 -89802424#3 -89802424#2 -89802424#1"/>
    </vehicle>
    <vehicle id="119" depart="119.00">
        <route edges="8918851#3 -237300267#10 -237300267#9 237300267#9"/>
    </vehicle>
    <vehicle id="120" depart="120.00">
        <route edges="8916448#1 8916448#2 8916448#3 8916448#4 -286265331#6 8918664#5"/>
    </vehicle>
    <vehicle id="121" depart="121.00">
        <route edges="-8918851#5 8918851#5 8918851#6 -225806046#0 -286265331#10 -286265331#9 8921354#5"/>
    </vehicle>
    <vehicle id="122" depart="122.00">
        <route edges="8918851#2 8918851#3 -237300267#10 -237300267#9 -237300267#8 -237300267#7 -237300267#6 8916448#2 -286265327#6 -286265327#5 28809027#3"/>
    </vehicle>
    <vehicle id="123" depart="123.00">
        <route edges="-217622185#9 8921354#1 -8921354#1"/>
    </vehicle>
    <vehicle id="124" depart="124.00">
        <route edges="-217622184#0 -184501639#5 -184501639#4 -89802424#8 -89802424#7 -89802424#6 -89802424#5 8916953#2 -89802405#4 -89802405#3 32949491#2"/>
    </vehicle>
    <vehicle id="125" depart="125.00">
        <route edges="286265329#8 286265329#9 286265329#10 286265329#11 -8918851#5 -8918851#4 -8918851#3 -8918851#2 -8918851#1 8918851#1"/>
    </vehicle>
    <vehicle id="126" depart="126.00">
        <route edges="-217622184#1 217622184#1 217622184#2 286265339#0 286265339#1 286265338 286265333 286265329#0 286265329#1 286265329#2 286265329#3 286265329#4 286265329#5 -8918664#3"/>
    </vehicle>
    <vehicle id="127" depart="127.00">
        <route edges="27092233#5 -27092233#5 -27092233#4 -27092233#3 -27092233#2 -27092233#1 -27092233#0"/>
    </vehicle>
    <vehicle id="128" depart="128.00">
        <route edges="286265339#0 286265339#1 286265338 -89802405#9 -89802405#8 -89802405#7 -89802405#6 -89802405#5 -89802405#4 -89802405#3 -89802405#2 -8917472#2"/>
    </vehicle>
    <vehicle id="129" depart="129.00">
        <route edges="27092233#4 8916953#4 225806045#7 225806045#8 225806045#9 225806045#10 225806045#11 286265331#0 286265331#1 286265331#2 286265331#3 286265331#4 286265331#5 286265331#6 286265331#7 286265331#8"/>
    </vehicle>
    <vehicle id="130" depart="130.00">
        <route edges="-286265331#8 -286265331#7 -286265331#6 -286265331#5 -286265331#4 -286265331#3 -286265331#2 -286265331#1 -286265331#0 -225806045#11 -225806045#10 -225806045#9 -225806045#8 -225806045#7 -225806045#6 -225806045#5 -225806045#4 -225806045#3 -32949491#4 -32949491#3"/>
    </vehicle>
    <vehicle id="131" depart="131.00">