<?xml version="1.0" encoding="UTF-8"?>

<!-- generated on Fri Sep 19 08:45:02 2014 by SUMO netconvert Version 0.21.0
<?xml version="1.0" encoding="UTF-8"?>

<configuration xmlns:xsi="http://www.w3.org/2001/XMLSchema-instance" xsi:noNamespaceSchemaLocation="http://sumo-sim.org/xsd/netconvertConfiguration.xsd">

    <input>
        <osm-files value="sanfrancisco.osm"/>
    </input>

    <output>
        <output-file value="sanfrancisco.net.xml"/>
    </output>

    <projection>
        <proj.utm value="true"/>
    </projection>

    <ramp_guessing>
        <ramps.guess value="true"/>
    </ramp_guessing>

    <edge_removal>
        <remove-edges.by-vclass value="hov,taxi,bus,delivery,transport,lightrail,cityrail,rail_slow,rail_fast,bicycle,pedestrian"/>
        <remove-edges.isolated value="true"/>
    </edge_removal>

    <processing>
        <junctions.join value="true"/>
    </processing>

    <report>
        <log value="netconvert.log"/>
    </report>

</configuration>
-->

<net version="0.13" xmlns:xsi="http://www.w3.org/2001/XMLSchema-instance" xsi:noNamespaceSchemaLocation="http://sumo-sim.org/xsd/net_file.xsd">

    <location netOffset="-543214.36,-4176511.46" convBoundary="0.00,0.00,2873.99,3361.49" origBoundary="-122.509389,37.734800,-122.476776,37.765065" projParameter="+proj=utm +zone=10 +ellps=WGS84 +datum=WGS84 +units=m +no_defs"/>

    <edge id=":1583149363_0" function="internal">
        <lane id=":1583149363_0_0" index="0" speed="13.89" length="0.10" shape="1250.49,2884.48 1250.49,2884.48"/>
    </edge>
    <edge id=":1583149363_1" function="internal">
        <lane id=":1583149363_1_0" index="0" speed="13.89" length="2.41" shape="1250.49,2884.48 1249.59,2885.66 1248.74,2886.02"/>
    </edge>
    <edge id=":1583149363_4" function="internal">
        <lane id=":1583149363_4_0" index="0" speed="13.89" length="2.41" shape="1248.74,2886.02 1247.94,2885.56 1247.20,2884.28"/>
    </edge>
    <edge id=":1583149363_2" function="internal">
        <lane id=":1583149363_2_0" index="0" speed="13.89" length="0.10" shape="1247.20,2884.28 1247.20,2884.28"/>
    </edge>
    <edge id=":1583149363_3" function="internal">
        <lane id=":1583149363_3_0" index="0" speed="13.89" length="2.41" shape="1247.20,2884.28 1248.09,2883.09 1248.94,2882.73"/>
    </edge>
    <edge id=":1583149363_5" function="internal">
        <lane id=":1583149363_5_0" index="0" speed="13.89" length="2.41" shape="1248.94,2882.73 1249.74,2883.19 1250.49,2884.48"/>
    </edge>
    <edge id=":1583149376_0" function="internal">
        <lane id=":1583149376_0_0" index="0" speed="15.65" length="0.10" shape="1210.52,2882.42 1210.52,2882.42"/>
        <lane id=":1583149376_0_1" index="1" speed="15.65" length="0.10" shape="1207.23,2882.22 1207.23,2882.22"/>
    </edge>
    <edge id=":1583149387_0" function="internal">
        <lane id=":1583149387_0_0" index="0" speed="11.18" length="0.10" shape="1145.46,2890.70 1145.46,2890.70"/>
    </edge>
    <edge id=":1583149387_1" function="internal">
        <lane id=":1583149387_1_0" index="0" speed="11.18" length="2.41" shape="1145.46,2890.70 1144.28,2889.80 1143.92,2888.96"/>
    </edge>
    <edge id=":1583149387_4" function="internal">
        <lane id=":1583149387_4_0" index="0" speed="11.18" length="2.41" shape="1143.92,2888.96 1144.38,2888.16 1145.66,2887.41"/>
    </edge>
    <edge id=":1583149387_2" function="internal">
        <lane id=":1583149387_2_0" index="0" speed="11.18" length="0.10" shape="1145.67,2887.41 1145.66,2887.41"/>
    </edge>
    <edge id=":1583149387_3" function="internal">
        <lane id=":1583149387_3_0" index="0" speed="11.18" length="2.41" shape="1145.67,2887.41 1146.85,2888.31 1147.21,2889.16"/>
    </edge>
    <edge id=":1583149387_5" function="internal">
        <lane id=":1583149387_5_0" index="0" speed="11.18" length="2.41" shape="1147.21,2889.16 1146.75,2889.95 1145.46,2890.70"/>
    </edge>
    <edge id=":1583149389_0" function="internal">
        <lane id=":1583149389_0_0" index="0" speed="11.18" length="0.10" shape="1214.63,2894.91 1214.63,2894.91"/>
    </edge>
    <edge id=":1583149389_1" function="internal">
        <lane id=":1583149389_1_0" index="0" speed="11.18" length="2.41" shape="1214.63,2894.91 1213.45,2894.02 1213.09,2893.17"/>
    </edge>
    <edge id=":1583149389_4" function="internal">
        <lane id=":1583149389_4_0" index="0" speed="11.18" length="2.41" shape="1213.09,2893.17 1213.55,2892.37 1214.83,2891.62"/>
    </edge>
    <edge id=":1583149389_2" function="internal">
        <lane id=":1583149389_2_0" index="0" speed="11.18" length="0.10" shape="1214.83,2891.62 1214.83,2891.62"/>
    </edge>
    <edge id=":1583149389_3" function="internal">
        <lane id=":1583149389_3_0" index="0" speed="11.18" length="2.41" shape="1214.83,2891.62 1216.02,2892.52 1216.38,2893.37"/>
    </edge>
    <edge id=":1583149389_5" function="internal">
        <lane id=":1583149389_5_0" index="0" speed="11.18" length="2.41" shape="1216.38,2893.37 1215.92,2894.17 1214.63,2894.91"/>
    </edge>
    <edge id=":1583149392_0" function="internal">
        <lane id=":1583149392_0_0" index="0" speed="11.18" length="0.10" shape="1183.98,2893.05 1183.98,2893.05"/>
    </edge>
    <edge id=":1583149392_1" function="internal">
        <lane id=":1583149392_1_0" index="0" speed="11.18" length="2.41" shape="1183.98,2893.05 1182.80,2892.15 1182.43,2891.30"/>
    </edge>
    <edge id=":1583149392_4" function="internal">
        <lane id=":1583149392_4_0" index="0" speed="11.18" length="2.41" shape="1182.43,2891.30 1182.90,2890.51 1184.18,2889.76"/>
    </edge>
    <edge id=":1583149392_2" function="internal">
        <lane id=":1583149392_2_0" index="0" speed="11.18" length="0.10" shape="1184.18,2889.76 1184.18,2889.76"/>
    </edge>
    <edge id=":1583149392_3" function="internal">
        <lane id=":1583149392_3_0" index="0" speed="11.18" length="2.41" shape="1184.18,2889.76 1185.37,2890.66 1185.73,2891.51"/>
    </edge>
    <edge id=":1583149392_5" function="internal">
        <lane id=":1583149392_5_0" index="0" speed="11.18" length="2.41" shape="1185.73,2891.51 1185.26,2892.30 1183.98,2893.05"/>
    </edge>
    <edge id=":1583149395_0" function="internal">
        <lane id=":1583149395_0_0" index="0" speed="11.18" length="0.10" shape="1160.99,2891.64 1160.99,2891.64"/>
    </edge>
    <edge id=":1583149395_1" function="internal">
        <lane id=":1583149395_1_0" index="0" speed="11.18" length="2.41" shape="1160.99,2891.64 1159.80,2890.74 1159.44,2889.89"/>
    </edge>
    <edge id=":1583149395_4" function="internal">
        <lane id=":1583149395_4_0" index="0" speed="11.18" length="2.41" shape="1159.44,2889.89 1159.90,2889.09 1161.19,2888.35"/>
    </edge>
    <edge id=":1583149395_2" function="internal">
        <lane id=":1583149395_2_0" index="0" speed="11.18" length="0.10" shape="1161.19,2888.35 1161.19,2888.35"/>
    </edge>
    <edge id=":1583149395_3" function="internal">
        <lane id=":1583149395_3_0" index="0" speed="11.18" length="2.41" shape="1161.19,2888.35 1162.38,2889.25 1162.74,2890.09"/>
    </edge>
    <edge id=":1583149395_5" function="internal">
        <lane id=":1583149395_5_0" index="0" speed="11.18" length="2.41" shape="1162.74,2890.09 1162.27,2890.89 1160.99,2891.64"/>
    </edge>
    <edge id=":1583149398_0" function="internal">
        <lane id=":1583149398_0_0" index="0" speed="11.18" length="0.10" shape="1254.71,2897.36 1254.71,2897.36"/>
    </edge>
    <edge id=":1583149398_1" function="internal">
        <lane id=":1583149398_1_0" index="0" speed="11.18" length="2.41" shape="1254.71,2897.36 1253.52,2896.46 1253.16,2895.61"/>
    </edge>
    <edge id=":1583149398_4" function="internal">
        <lane id=":1583149398_4_0" index="0" speed="11.18" length="2.41" shape="1253.16,2895.61 1253.62,2894.81 1254.91,2894.07"/>
    </edge>
    <edge id=":1583149398_2" function="internal">
        <lane id=":1583149398_2_0" index="0" speed="11.18" length="0.10" shape="1254.91,2894.07 1254.91,2894.07"/>
    </edge>
    <edge id=":1583149398_3" function="internal">
        <lane id=":1583149398_3_0" index="0" speed="11.18" length="2.41" shape="1254.91,2894.07 1256.09,2894.97 1256.45,2895.81"/>
    </edge>
    <edge id=":1583149398_5" function="internal">
        <lane id=":1583149398_5_0" index="0" speed="11.18" length="2.41" shape="1256.45,2895.81 1255.99,2896.61 1254.71,2897.36"/>
    </edge>
    <edge id=":1583149403_0" function="internal">
        <lane id=":1583149403_0_0" index="0" speed="11.18" length="0.10" shape="1239.79,2896.45 1239.79,2896.45"/>
    </edge>
    <edge id=":1583149403_1" function="internal">
        <lane id=":1583149403_1_0" index="0" speed="11.18" length="2.41" shape="1239.79,2896.45 1238.60,2895.55 1238.24,2894.70"/>
    </edge>
    <edge id=":1583149403_4" function="internal">
        <lane id=":1583149403_4_0" index="0" speed="11.18" length="2.41" shape="1238.24,2894.70 1238.71,2893.90 1239.99,2893.15"/>
    </edge>
    <edge id=":1583149403_2" function="internal">
        <lane id=":1583149403_2_0" index="0" speed="11.18" length="0.10" shape="1239.99,2893.15 1239.99,2893.15"/>
    </edge>
    <edge id=":1583149403_3" function="internal">
        <lane id=":1583149403_3_0" index="0" speed="11.18" length="2.41" shape="1239.99,2893.15 1241.18,2894.05 1241.54,2894.90"/>
    </edge>
    <edge id=":1583149403_5" function="internal">
        <lane id=":1583149403_5_0" index="0" speed="11.18" length="2.41" shape="1241.54,2894.90 1241.08,2895.70 1239.79,2896.45"/>
    </edge>
    <edge id=":1583149433_0" function="internal">
        <lane id=":1583149433_0_0" index="0" speed="13.89" length="0.10" shape="1155.61,2900.68 1155.61,2900.68"/>
    </edge>
    <edge id=":1583149433_1" function="internal">
        <lane id=":1583149433_1_0" index="0" speed="13.89" length="2.41" shape="1155.61,2900.68 1154.71,2901.87 1153.86,2902.23"/>
    </edge>
    <edge id=":1583149433_4" function="internal">
        <lane id=":1583149433_4_0" index="0" speed="13.89" length="2.41" shape="1153.86,2902.23 1153.06,2901.77 1152.31,2900.49"/>
    </edge>
    <edge id=":1583149433_2" function="internal">
        <lane id=":1583149433_2_0" index="0" speed="13.89" length="0.10" shape="1152.31,2900.49 1152.31,2900.49"/>
    </edge>
    <edge id=":1583149433_3" function="internal">
        <lane id=":1583149433_3_0" index="0" speed="13.89" length="2.41" shape="1152.31,2900.49 1153.21,2899.30 1154.06,2898.94"/>
    </edge>
    <edge id=":1583149433_5" function="internal">
        <lane id=":1583149433_5_0" index="0" speed="13.89" length="2.41" shape="1154.06,2898.94 1154.86,2899.40 1155.61,2900.68"/>
    </edge>
    <edge id=":1583149442_0" function="internal">
        <lane id=":1583149442_0_0" index="0" speed="13.89" length="0.10" shape="1249.19,2905.82 1249.19,2905.82"/>
    </edge>
    <edge id=":1583149442_1" function="internal">
        <lane id=":1583149442_1_0" index="0" speed="13.89" length="2.41" shape="1249.19,2905.82 1248.30,2907.00 1247.45,2907.36"/>
    </edge>
    <edge id=":1583149442_4" function="internal">
        <lane id=":1583149442_4_0" index="0" speed="13.89" length="2.41" shape="1247.45,2907.36 1246.65,2906.90 1245.90,2905.62"/>
    </edge>
    <edge id=":1583149442_2" function="internal">
        <lane id=":1583149442_2_0" index="0" speed="13.89" length="0.10" shape="1245.90,2905.62 1245.90,2905.62"/>
    </edge>
    <edge id=":1583149442_3" function="internal">
        <lane id=":1583149442_3_0" index="0" speed="13.89" length="2.41" shape="1245.90,2905.62 1246.80,2904.43 1247.65,2904.07"/>
    </edge>
    <edge id=":1583149442_5" function="internal">
        <lane id=":1583149442_5_0" index="0" speed="13.89" length="2.41" shape="1247.65,2904.07 1248.45,2904.53 1249.19,2905.82"/>
    </edge>
    <edge id=":1583149455_0" function="internal">
        <lane id=":1583149455_0_0" index="0" speed="15.65" length="0.10" shape="1209.20,2904.01 1209.20,2904.01"/>
        <lane id=":1583149455_0_1" index="1" speed="15.65" length="0.10" shape="1205.91,2903.81 1205.91,2903.81"/>
    </edge>
    <edge id=":1583149462_0" function="internal">
        <lane id=":1583149462_0_0" index="0" speed="15.65" length="0.10" shape="1192.18,2902.96 1192.18,2902.96"/>
        <lane id=":1583149462_0_1" index="1" speed="15.65" length="0.10" shape="1195.48,2903.16 1195.48,2903.16"/>
    </edge>
    <edge id=":1707906077_0" function="internal">
        <lane id=":1707906077_0_0" index="0" speed="15.65" length="0.10" shape="1193.49,2881.42 1193.49,2881.42"/>
        <lane id=":1707906077_0_1" index="1" speed="15.65" length="0.10" shape="1196.78,2881.62 1196.78,2881.62"/>
    </edge>
    <edge id=":1707906099_0" function="internal">
        <lane id=":1707906099_0_0" index="0" speed="13.89" length="0.10" shape="1156.89,2879.30 1156.89,2879.31"/>
    </edge>
    <edge id=":1707906099_1" function="internal">
        <lane id=":1707906099_1_0" index="0" speed="13.89" length="2.41" shape="1156.89,2879.30 1156.00,2880.49 1155.16,2880.86"/>
    </edge>
    <edge id=":1707906099_4" function="internal">
        <lane id=":1707906099_4_0" index="0" speed="13.89" length="2.41" shape="1155.16,2880.86 1154.35,2880.40 1153.60,2879.12"/>
    </edge>
    <edge id=":1707906099_2" function="internal">
        <lane id=":1707906099_2_0" index="0" speed="13.89" length="0.10" shape="1153.60,2879.11 1153.60,2879.12"/>
    </edge>
    <edge id=":1707906099_3" function="internal">
        <lane id=":1707906099_3_0" index="0" speed="13.89" length="2.41" shape="1153.60,2879.11 1154.50,2877.93 1155.34,2877.56"/>
    </edge>
    <edge id=":1707906099_5" function="internal">
        <lane id=":1707906099_5_0" index="0" speed="13.89" length="2.41" shape="1155.34,2877.56 1156.14,2878.03 1156.89,2879.31"/>
    </edge>
    <edge id=":2269180925_0" function="internal">
        <lane id=":2269180925_0_0" index="0" speed="11.18" length="0.10" shape="123.52,2828.17 123.52,2828.17"/>
    </edge>
    <edge id=":2269180925_1" function="internal">
        <lane id=":2269180925_1_0" index="0" speed="11.18" length="2.41" shape="123.52,2828.17 122.34,2827.27 121.98,2826.42"/>
    </edge>
    <edge id=":2269180925_4" function="internal">
        <lane id=":2269180925_4_0" index="0" speed="11.18" length="2.41" shape="121.98,2826.42 122.44,2825.62 123.73,2824.88"/>
    </edge>
    <edge id=":2269180925_2" function="internal">
        <lane id=":2269180925_2_0" index="0" speed="11.18" length="0.10" shape="123.73,2824.88 123.73,2824.88"/>
    </edge>
    <edge id=":2269180925_3" function="internal">
        <lane id=":2269180925_3_0" index="0" speed="11.18" length="2.41" shape="123.73,2824.88 124.91,2825.78 125.27,2826.62"/>
    </edge>
    <edge id=":2269180925_5" function="internal">
        <lane id=":2269180925_5_0" index="0" speed="11.18" length="2.41" shape="125.27,2826.62 124.81,2827.42 123.52,2828.17"/>
    </edge>
    <edge id=":2269180939_0" function="internal">
        <lane id=":2269180939_0_0" index="0" speed="13.89" length="0.10" shape="117.31,2836.71 117.31,2836.71"/>
    </edge>
    <edge id=":2269180939_1" function="internal">
        <lane id=":2269180939_1_0" index="0" speed="13.89" length="2.41" shape="117.31,2836.71 116.41,2837.90 115.56,2838.26"/>
    </edge>
    <edge id=":2269180939_4" function="internal">
        <lane id=":2269180939_4_0" index="0" speed="13.89" length="2.41" shape="115.56,2838.26 114.76,2837.80 114.01,2836.51"/>
    </edge>
    <edge id=":2269180939_2" function="internal">
        <lane id=":2269180939_2_0" index="0" speed="13.89" length="0.10" shape="114.01,2836.51 114.01,2836.51"/>
    </edge>
    <edge id=":2269180939_3" function="internal">
        <lane id=":2269180939_3_0" index="0" speed="13.89" length="2.41" shape="114.01,2836.51 114.91,2835.32 115.76,2834.96"/>
    </edge>
    <edge id=":2269180939_5" function="internal">
        <lane id=":2269180939_5_0" index="0" speed="13.89" length="2.41" shape="115.76,2834.96 116.56,2835.43 117.31,2836.71"/>
    </edge>
    <edge id=":2269180967_0" function="internal">
        <lane id=":2269180967_0_0" index="0" speed="13.89" length="0.10" shape="118.56,2816.26 118.56,2816.26"/>
    </edge>
    <edge id=":2269180967_1" function="internal">
        <lane id=":2269180967_1_0" index="0" speed="13.89" length="2.41" shape="118.56,2816.26 117.66,2817.44 116.81,2817.80"/>
    </edge>
    <edge id=":2269180967_4" function="internal">
        <lane id=":2269180967_4_0" index="0" speed="13.89" length="2.41" shape="116.81,2817.80 116.01,2817.34 115.27,2816.06"/>
    </edge>
    <edge id=":2269180967_2" function="internal">
        <lane id=":2269180967_2_0" index="0" speed="13.89" length="0.10" shape="115.27,2816.06 115.27,2816.06"/>
    </edge>
    <edge id=":2269180967_3" function="internal">
        <lane id=":2269180967_3_0" index="0" speed="13.89" length="2.41" shape="115.27,2816.06 116.16,2814.87 117.01,2814.51"/>
    </edge>
    <edge id=":2269180967_5" function="internal">
        <lane id=":2269180967_5_0" index="0" speed="13.89" length="2.41" shape="117.01,2814.51 117.81,2814.97 118.56,2816.26"/>
    </edge>
    <edge id=":2269180969_0" function="internal">
        <lane id=":2269180969_0_0" index="0" speed="11.18" length="0.10" shape="106.40,2827.11 106.40,2827.11"/>
    </edge>
    <edge id=":2269180969_1" function="internal">
        <lane id=":2269180969_1_0" index="0" speed="11.18" length="2.41" shape="106.40,2827.11 105.22,2826.21 104.86,2825.37"/>
    </edge>
    <edge id=":2269180969_4" function="internal">
        <lane id=":2269180969_4_0" index="0" speed="11.18" length="2.41" shape="104.86,2825.37 105.32,2824.57 106.61,2823.82"/>
    </edge>
    <edge id=":2269180969_2" function="internal">
        <lane id=":2269180969_2_0" index="0" speed="11.18" length="0.10" shape="106.61,2823.82 106.61,2823.82"/>
    </edge>
    <edge id=":2269180969_3" function="internal">
        <lane id=":2269180969_3_0" index="0" speed="11.18" length="2.41" shape="106.61,2823.82 107.79,2824.72 108.15,2825.57"/>
    </edge>
    <edge id=":2269180969_5" function="internal">
        <lane id=":2269180969_5_0" index="0" speed="11.18" length="2.41" shape="108.15,2825.57 107.69,2826.37 106.40,2827.11"/>
    </edge>
    <edge id=":2477311941_0" function="internal">
        <lane id=":2477311941_0_0" index="0" speed="27.78" length="0.10" shape="1787.33,2102.62 1787.31,2102.62"/>
        <lane id=":2477311941_0_1" index="1" speed="27.78" length="0.10" shape="1787.52,2099.32 1787.52,2099.32"/>
    </edge>
    <edge id=":2477311941_2" function="internal">
        <lane id=":2477311941_2_0" index="0" speed="27.78" length="2.41" shape="1787.52,2099.32 1786.34,2098.43 1785.97,2097.58"/>
    </edge>
    <edge id=":2477311941_6" function="internal">
        <lane id=":2477311941_6_0" index="0" speed="27.78" length="2.41" shape="1785.97,2097.58 1786.44,2096.78 1787.72,2096.03"/>
    </edge>
    <edge id=":2477311941_3" function="internal">
        <lane id=":2477311941_3_0" index="0" speed="27.78" length="0.10" shape="1787.94,2092.74 1787.92,2092.74"/>
        <lane id=":2477311941_3_1" index="1" speed="27.78" length="0.10" shape="1787.73,2096.03 1787.72,2096.03"/>
    </edge>
    <edge id=":2477311941_5" function="internal">
        <lane id=":2477311941_5_0" index="0" speed="27.78" length="2.41" shape="1787.73,2096.03 1788.91,2096.93 1789.27,2097.78"/>
    </edge>
    <edge id=":2477311941_7" function="internal">
        <lane id=":2477311941_7_0" index="0" speed="27.78" length="2.41" shape="1789.27,2097.78 1788.80,2098.58 1787.52,2099.32"/>
    </edge>
    <edge id=":2477311942_0" function="internal">
        <lane id=":2477311942_0_0" index="0" speed="13.89" length="0.10" shape="1862.08,2176.55 1862.08,2176.55"/>
    </edge>
    <edge id=":2477311942_1" function="internal">
        <lane id=":2477311942_1_0" index="0" speed="13.89" length="2.41" shape="1862.08,2176.55 1861.18,2177.73 1860.34,2178.10"/>
    </edge>
    <edge id=":2477311942_4" function="internal">
        <lane id=":2477311942_4_0" index="0" speed="13.89" length="2.41" shape="1860.34,2178.10 1859.54,2177.64 1858.78,2176.36"/>
    </edge>
    <edge id=":2477311942_2" function="internal">
        <lane id=":2477311942_2_0" index="0" speed="13.89" length="0.10" shape="1858.78,2176.36 1858.78,2176.36"/>
    </edge>
    <edge id=":2477311942_3" function="internal">
        <lane id=":2477311942_3_0" index="0" speed="13.89" length="2.41" shape="1858.78,2176.36 1859.68,2175.17 1860.53,2174.80"/>
    </edge>
    <edge id=":2477311942_5" function="internal">
        <lane id=":2477311942_5_0" index="0" speed="13.89" length="2.41" shape="1860.53,2174.80 1861.33,2175.26 1862.08,2176.55"/>
    </edge>
    <edge id=":2477311946_0" function="internal">
        <lane id=":2477311946_0_0" index="0" speed="27.78" length="0.10" shape="1844.04,2106.00 1844.04,2106.00"/>
        <lane id=":2477311946_0_1" index="1" speed="27.78" length="0.10" shape="1844.24,2102.71 1844.24,2102.71"/>
    </edge>
    <edge id=":2477311946_2" function="internal">
        <lane id=":2477311946_2_0" index="0" speed="27.78" length="2.41" shape="1844.24,2102.71 1843.05,2101.81 1842.69,2100.96"/>
    </edge>
    <edge id=":2477311946_6" function="internal">
        <lane id=":2477311946_6_0" index="0" speed="27.78" length="2.41" shape="1842.69,2100.96 1843.15,2100.16 1844.43,2099.41"/>
    </edge>
    <edge id=":2477311946_3" function="internal">
        <lane id=":2477311946_3_0" index="0" speed="27.78" length="0.10" shape="1844.63,2096.12 1844.63,2096.12"/>
        <lane id=":2477311946_3_1" index="1" speed="27.78" length="0.10" shape="1844.43,2099.41 1844.43,2099.41"/>
    </edge>
    <edge id=":2477311946_5" function="internal">
        <lane id=":2477311946_5_0" index="0" speed="27.78" length="2.41" shape="1844.43,2099.41 1845.62,2100.31 1845.98,2101.16"/>
    </edge>
    <edge id=":2477311946_7" function="internal">
        <lane id=":2477311946_7_0" index="0" speed="27.78" length="2.41" shape="1845.98,2101.16 1845.52,2101.96 1844.24,2102.71"/>
    </edge>
    <edge id=":258912605_0" function="internal">
        <lane id=":258912605_0_0" index="0" speed="13.89" length="4.82" shape="752.78,3278.12 751.88,3279.30 751.03,3279.66 750.23,3279.20 749.49,3277.91"/>
    </edge>
    <edge id=":258912687_0" function="internal">
        <lane id=":258912687_0_0" index="0" speed="13.89" length="4.82" shape="280.12,3248.91 279.23,3250.10 278.38,3250.46 277.58,3250.00 276.83,3248.71"/>
    </edge>
    <edge id=":2630856848_0" function="internal">
        <lane id=":2630856848_0_0" index="0" speed="13.89" length="4.82" shape="740.34,34.13 740.69,32.69 741.32,32.02 742.23,32.12 743.44,32.99"/>
    </edge>
    <edge id=":2630856883_0" function="internal">
        <lane id=":2630856883_0_0" index="0" speed="13.89" length="4.82" shape="565.36,60.97 566.26,59.78 567.10,59.41 567.90,59.87 568.66,61.15"/>
    </edge>
    <edge id=":297249139_0" function="internal">
        <lane id=":297249139_0_0" index="0" speed="13.89" length="4.82" shape="2843.29,2369.63 2844.48,2370.53 2844.84,2371.38 2844.38,2372.18 2843.09,2372.93"/>
    </edge>
    <edge id=":313883645_0" function="internal">
        <lane id=":313883645_0_0" index="0" speed="11.18" length="0.10" shape="10.51,2821.15 10.51,2821.15"/>
    </edge>
    <edge id=":313883645_1" function="internal">
        <lane id=":313883645_1_0" index="0" speed="11.18" length="2.41" shape="10.51,2821.15 9.32,2820.25 8.96,2819.40"/>
    </edge>
    <edge id=":313883645_4" function="internal">
        <lane id=":313883645_4_0" index="0" speed="11.18" length="2.41" shape="8.96,2819.40 9.43,2818.60 10.71,2817.86"/>
    </edge>
    <edge id=":313883645_2" function="internal">
        <lane id=":313883645_2_0" index="0" speed="11.18" length="0.10" shape="10.71,2817.86 10.71,2817.86"/>
    </edge>
    <edge id=":313883645_3" function="internal">
        <lane id=":313883645_3_0" index="0" speed="11.18" length="2.41" shape="10.71,2817.86 11.90,2818.76 12.26,2819.61"/>
    </edge>
    <edge id=":313883645_5" function="internal">
        <lane id=":313883645_5_0" index="0" speed="11.18" length="2.41" shape="12.26,2819.61 11.80,2820.41 10.51,2821.15"/>
    </edge>
    <edge id=":65287789_0" function="internal">
        <lane id=":65287789_0_0" index="0" speed="13.89" length="4.82" shape="2165.11,261.54 2166.01,260.35 2166.86,259.99 2167.66,260.46 2168.41,261.74"/>
    </edge>
    <edge id=":65287834_0" function="internal">
        <lane id=":65287834_0_0" index="0" speed="13.89" length="4.82" shape="1687.09,345.04 1687.99,343.86 1688.84,343.50 1689.64,343.96 1690.39,345.25"/>
    </edge>
    <edge id=":65287885_0" function="internal">
        <lane id=":65287885_0_0" index="0" speed="13.89" length="0.10" shape="848.17,171.63 848.17,171.65"/>
    </edge>
    <edge id=":65287885_1" function="internal">
        <lane id=":65287885_1_0" index="0" speed="13.89" length="2.41" shape="848.17,171.63 847.29,172.83 846.44,173.21"/>
    </edge>
    <edge id=":65287885_4" function="internal">
        <lane id=":65287885_4_0" index="0" speed="13.89" length="2.41" shape="846.44,173.21 845.64,172.76 844.87,171.48"/>
    </edge>
    <edge id=":65287885_2" function="internal">
        <lane id=":65287885_2_0" index="0" speed="13.89" length="0.10" shape="844.87,171.46 844.87,171.48"/>
    </edge>
    <edge id=":65287885_3" function="internal">
        <lane id=":65287885_3_0" index="0" speed="13.89" length="2.41" shape="844.87,171.46 845.76,170.28 846.61,169.91"/>
    </edge>
    <edge id=":65287885_5" function="internal">
        <lane id=":65287885_5_0" index="0" speed="13.89" length="2.41" shape="846.61,169.91 847.41,170.37 848.17,171.65"/>
    </edge>
    <edge id=":65288285_0" function="internal">
        <lane id=":65288285_0_0" index="0" speed="27.78" length="4.82" shape="2526.11,2140.75 2527.30,2141.65 2527.66,2142.49 2527.20,2143.29 2525.91,2144.04"/>
    </edge>
    <edge id=":65288298_0" function="internal">
        <lane id=":65288298_0_0" index="0" speed="20.83" length="5.00" shape="2058.80,2119.01 2057.44,2119.12 2056.43,2119.64 2055.80,2120.58 2055.52,2121.92"/>
    </edge>
    <edge id=":65288298_1" function="internal">
        <lane id=":65288298_1_0" index="0" speed="27.78" length="9.50" shape="2058.80,2119.01 2049.32,2118.44"/>
        <lane id=":65288298_1_1" index="1" speed="27.78" length="9.50" shape="2059.00,2115.72 2049.52,2115.14"/>
    </edge>
    <edge id=":65288298_3" function="internal">
        <lane id=":65288298_3_0" index="0" speed="20.83" length="6.51" shape="2059.00,2115.72 2056.24,2114.94 2054.36,2113.01 2054.06,2112.11"/>
    </edge>
    <edge id=":65288298_4" function="internal">
        <lane id=":65288298_4_0" index="0" speed="27.78" length="2.41" shape="2059.00,2115.72 2057.82,2114.82 2057.45,2113.97"/>
    </edge>
    <edge id=":65288298_18" function="internal">
        <lane id=":65288298_18_0" index="0" speed="20.83" length="6.58" shape="2054.06,2112.11 2053.34,2109.91 2053.20,2105.65"/>
    </edge>
    <edge id=":65288298_19" function="internal">
        <lane id=":65288298_19_0" index="0" speed="27.78" length="2.41" shape="2057.45,2113.97 2057.92,2113.17 2059.20,2112.42"/>
    </edge>
    <edge id=":65288298_5" function="internal">
        <lane id=":65288298_5_0" index="0" speed="20.83" length="5.00" shape="2056.49,2105.85 2056.61,2107.21 2057.13,2108.22 2058.06,2108.85 2059.40,2109.13"/>
    </edge>
    <edge id=":65288298_6" function="internal">
        <lane id=":65288298_6_0" index="0" speed="13.89" length="16.10" shape="2056.49,2105.85 2056.26,2109.76 2056.01,2113.88 2055.76,2118.00 2055.52,2121.92"/>
    </edge>
    <edge id=":65288298_7" function="internal">
        <lane id=":65288298_7_0" index="0" speed="20.83" length="13.09" shape="2056.49,2105.85 2055.84,2110.06 2054.46,2113.01 2052.35,2114.71 2049.52,2115.14"/>
    </edge>
    <edge id=":65288298_8" function="internal">
        <lane id=":65288298_8_0" index="0" speed="13.89" length="4.82" shape="2056.49,2105.85 2055.60,2107.03 2054.75,2107.40 2053.95,2106.93 2053.20,2105.65"/>
    </edge>
    <edge id=":65288298_9" function="internal">
        <lane id=":65288298_9_0" index="0" speed="20.83" length="5.00" shape="2049.92,2108.55 2051.28,2108.44 2052.29,2107.92 2052.93,2106.99 2053.20,2105.65"/>
    </edge>
    <edge id=":65288298_10" function="internal">
        <lane id=":65288298_10_0" index="0" speed="27.78" length="9.50" shape="2049.92,2108.55 2059.40,2109.13"/>
        <lane id=":65288298_10_1" index="1" speed="27.78" length="9.50" shape="2049.72,2111.85 2059.20,2112.42"/>
    </edge>
    <edge id=":65288298_12" function="internal">
        <lane id=":65288298_12_0" index="0" speed="20.83" length="6.51" shape="2049.72,2111.85 2052.48,2112.62 2054.36,2114.56 2054.66,2115.45"/>
    </edge>
    <edge id=":65288298_13" function="internal">
        <lane id=":65288298_13_0" index="0" speed="27.78" length="2.41" shape="2049.72,2111.85 2050.90,2112.75 2051.27,2113.60"/>
    </edge>
    <edge id=":65288298_20" function="internal">
        <lane id=":65288298_20_0" index="0" speed="20.83" length="6.58" shape="2054.66,2115.45 2055.38,2117.66 2055.52,2121.92"/>
    </edge>
    <edge id=":65288298_21" function="internal">
        <lane id=":65288298_21_0" index="0" speed="27.78" length="2.41" shape="2051.27,2113.60 2050.80,2114.39 2049.52,2115.14"/>
    </edge>
    <edge id=":65288298_14" function="internal">
        <lane id=":65288298_14_0" index="0" speed="20.83" length="5.00" shape="2052.23,2121.72 2052.11,2120.35 2051.59,2119.35 2050.66,2118.71 2049.32,2118.44"/>
    </edge>
    <edge id=":65288298_15" function="internal">
        <lane id=":65288298_15_0" index="0" speed="13.89" length="16.10" shape="2052.23,2121.72 2052.46,2117.80 2052.71,2113.68 2052.96,2109.56 2053.20,2105.65"/>
    </edge>
    <edge id=":65288298_16" function="internal">