<?xml version="1.0" encoding="UTF-8"?>

<!-- generated on 10/12/14 20:32:23 by SUMO netconvert Version 0.21.0
<?xml version="1.0" encoding="UTF-8"?>

<configuration xmlns:xsi="http://www.w3.org/2001/XMLSchema-instance" xsi:noNamespaceSchemaLocation="http://sumo-sim.org/xsd/netconvertConfiguration.xsd">

    <input>
        <osm-files value="f:/VANETProject/Maps/I95HighwayMap.osm"/>
    </input>

    <output>
        <output-file value="i95highway.net.xml"/>
    </output>

    <projection>
        <proj.utm value="true"/>
    </projection>

</configuration>
-->

<net version="0.13" xmlns:xsi="http://www.w3.org/2001/XMLSchema-instance" xsi:noNamespaceSchemaLocation="http://sumo-sim.org/xsd/net_file.xsd">

    <location netOffset="-517006.87,-3129110.61" convBoundary="0.00,0.00,8813.19,13009.39" origBoundary="-80.826450,28.287786,-80.736692,28.405354" projParameter="+proj=utm +zone=17 +ellps=WGS84 +datum=WGS84 +units=m +no_defs"/>

    <edge id=":1008274857_0" function="internal">
        <lane id=":1008274857_0_0" index="0" speed="20.83" length="7.89" shape="980.43,7960.01 980.81,7958.62 982.01,7957.63 984.01,7957.05 986.82,7956.87"/>
    </edge>
    <edge id=":1008274857_1" function="internal">
        <lane id=":1008274857_1_0" index="0" speed="13.89" length="4.82" shape="980.43,7960.01 981.24,7958.76 982.06,7958.34 982.89,7958.74 983.73,7959.97"/>
    </edge>
    <edge id=":1008274857_2" function="internal">
        <lane id=":1008274857_2_0" index="0" speed="27.78" length="9.50" shape="977.34,7953.50 986.84,7953.57"/>
        <lane id=":1008274857_2_1" index="1" speed="27.78" length="9.50" shape="977.32,7956.80 986.82,7956.87"/>
    </edge>
    <edge id=":1008274857_4" function="internal">
        <lane id=":1008274857_4_0" index="0" speed="20.83" length="7.87" shape="977.32,7956.80 980.11,7957.02 982.11,7957.62 983.31,7958.60 983.73,7959.97"/>
    </edge>
    <edge id=":1008274858_0" function="internal">
        <lane id=":1008274858_0_0" index="0" speed="20.83" length="7.90" shape="1404.67,7962.79 1405.05,7961.40 1406.24,7960.40 1408.24,7959.81 1411.05,7959.62"/>
    </edge>
    <edge id=":1008274858_1" function="internal">
        <lane id=":1008274858_1_0" index="0" speed="13.89" length="4.82" shape="1404.67,7962.79 1405.47,7961.54 1406.29,7961.12 1407.12,7961.51 1407.97,7962.74"/>
    </edge>
    <edge id=":1008274858_2" function="internal">
        <lane id=":1008274858_2_0" index="0" speed="27.78" length="9.49" shape="1401.57,7956.27 1411.06,7956.32"/>
        <lane id=":1008274858_2_1" index="1" speed="27.78" length="9.49" shape="1401.55,7959.57 1411.05,7959.62"/>
    </edge>
    <edge id=":1008274858_4" function="internal">
        <lane id=":1008274858_4_0" index="0" speed="20.83" length="7.87" shape="1401.55,7959.57 1404.34,7959.79 1406.34,7960.39 1407.55,7961.37 1407.97,7962.74"/>
    </edge>
    <edge id=":1008274883_0" function="internal">
        <lane id=":1008274883_0_0" index="0" speed="20.83" length="5.18" shape="1404.97,7982.10 1404.75,7980.70 1404.13,7979.70 1403.12,7979.10 1401.72,7978.89"/>
    </edge>
    <edge id=":1008274883_1" function="internal">
        <lane id=":1008274883_1_0" index="0" speed="13.89" length="9.63" shape="1404.97,7982.10 1404.82,7972.48"/>
    </edge>
    <edge id=":1008274883_2" function="internal">
        <lane id=":1008274883_2_0" index="0" speed="13.89" length="4.82" shape="1404.97,7982.10 1405.78,7980.85 1406.59,7980.43 1407.43,7980.82 1408.27,7982.05"/>
    </edge>
    <edge id=":1008274883_3" function="internal">
        <lane id=":1008274883_3_0" index="0" speed="20.83" length="5.02" shape="1411.35,7978.93 1409.98,7979.12 1409.02,7979.70 1408.44,7980.68 1408.27,7982.05"/>
    </edge>
    <edge id=":1008274883_4" function="internal">
        <lane id=":1008274883_4_0" index="0" speed="27.78" length="9.63" shape="1411.35,7978.93 1401.72,7978.89"/>
        <lane id=":1008274883_4_1" index="1" speed="27.78" length="9.63" shape="1411.36,7975.63 1401.74,7975.59"/>
    </edge>
    <edge id=":1008274883_6" function="internal">
        <lane id=":1008274883_6_0" index="0" speed="20.83" length="7.99" shape="1411.36,7975.63 1408.52,7975.42 1406.48,7974.83 1405.25,7973.85 1404.82,7972.48"/>
    </edge>
    <edge id=":1008274883_7" function="internal">
        <lane id=":1008274883_7_0" index="0" speed="13.89" length="9.63" shape="1408.12,7972.42 1408.27,7982.05"/>
    </edge>
    <edge id=":1008274883_8" function="internal">
        <lane id=":1008274883_8_0" index="0" speed="20.83" length="7.90" shape="1408.12,7972.42 1407.74,7973.82 1406.55,7974.81 1404.55,7975.41 1401.74,7975.59"/>
    </edge>
    <edge id=":1008274883_9" function="internal">
        <lane id=":1008274883_9_0" index="0" speed="13.89" length="4.82" shape="1408.12,7972.42 1407.31,7973.67 1406.49,7974.10 1405.66,7973.70 1404.82,7972.48"/>
    </edge>
    <edge id=":1008274887_0" function="internal">
        <lane id=":1008274887_0_0" index="0" speed="13.89" length="9.58" shape="975.89,8224.15 975.70,8214.57"/>
    </edge>
    <edge id=":1008274887_1" function="internal">
        <lane id=":1008274887_1_0" index="0" speed="13.89" length="7.20" shape="975.89,8224.15 976.22,8221.30 977.38,8219.27 979.08,8218.22"/>
    </edge>
    <edge id=":1008274887_2" function="internal">
        <lane id=":1008274887_2_0" index="0" speed="13.89" length="2.41" shape="975.89,8224.15 976.68,8222.89 977.50,8222.45"/>
    </edge>
    <edge id=":1008274887_9" function="internal">
        <lane id=":1008274887_9_0" index="0" speed="13.89" length="3.22" shape="979.08,8218.22 979.38,8218.03 982.21,8217.60"/>
    </edge>
    <edge id=":1008274887_10" function="internal">
        <lane id=":1008274887_10_0" index="0" speed="13.89" length="2.41" shape="977.50,8222.45 978.33,8222.84 979.19,8224.06"/>
    </edge>
    <edge id=":1008274887_3" function="internal">
        <lane id=":1008274887_3_0" index="0" speed="13.89" length="5.02" shape="982.24,8220.90 980.87,8221.11 979.91,8221.70 979.35,8222.68 979.19,8224.06"/>
    </edge>
    <edge id=":1008274887_4" function="internal">
        <lane id=":1008274887_4_0" index="0" speed="13.89" length="10.36" shape="982.24,8220.90 979.41,8220.52 977.38,8219.35 976.14,8217.36 975.70,8214.57"/>
    </edge>
    <edge id=":1008274887_5" function="internal">
        <lane id=":1008274887_5_0" index="0" speed="13.89" length="4.82" shape="982.24,8220.90 980.99,8220.08 980.57,8219.26 980.98,8218.43 982.21,8217.60"/>
    </edge>
    <edge id=":1008274887_6" function="internal">
        <lane id=":1008274887_6_0" index="0" speed="13.89" length="5.05" shape="979.00,8214.53 979.22,8215.88 979.82,8216.85 980.82,8217.42 982.21,8217.60"/>
    </edge>
    <edge id=":1008274887_7" function="internal">
        <lane id=":1008274887_7_0" index="0" speed="13.89" length="9.53" shape="979.00,8214.53 979.19,8224.06"/>
    </edge>
    <edge id=":1008274887_8" function="internal">
        <lane id=":1008274887_8_0" index="0" speed="13.89" length="2.41" shape="979.00,8214.53 978.19,8215.78 977.37,8216.20"/>
    </edge>
    <edge id=":1008274887_11" function="internal">
        <lane id=":1008274887_11_0" index="0" speed="13.89" length="2.41" shape="977.37,8216.20 976.54,8215.80 975.70,8214.57"/>
    </edge>
    <edge id=":1008274891_0" function="internal">
        <lane id=":1008274891_0_0" index="0" speed="20.83" length="5.13" shape="980.64,7980.41 980.43,7979.02 979.82,7978.03 978.83,7977.43 977.44,7977.22"/>
    </edge>
    <edge id=":1008274891_1" function="internal">
        <lane id=":1008274891_1_0" index="0" speed="13.89" length="9.59" shape="980.64,7980.41 980.54,7970.81"/>
    </edge>
    <edge id=":1008274891_2" function="internal">
        <lane id=":1008274891_2_0" index="0" speed="13.89" length="4.82" shape="980.64,7980.41 981.45,7979.16 982.27,7978.74 983.10,7979.14 983.94,7980.37"/>
    </edge>
    <edge id=":1008274891_3" function="internal">
        <lane id=":1008274891_3_0" index="0" speed="20.83" length="5.02" shape="987.03,7977.26 985.67,7977.45 984.70,7978.03 984.12,7979.01 983.94,7980.37"/>
    </edge>
    <edge id=":1008274891_4" function="internal">
        <lane id=":1008274891_4_0" index="0" speed="27.78" length="9.59" shape="987.03,7977.26 977.44,7977.22"/>
        <lane id=":1008274891_4_1" index="1" speed="27.78" length="9.59" shape="987.04,7973.96 977.45,7973.92"/>
    </edge>
    <edge id=":1008274891_6" function="internal">
        <lane id=":1008274891_6_0" index="0" speed="20.83" length="7.95" shape="987.04,7973.96 984.21,7973.75 982.18,7973.16 980.96,7972.18 980.54,7970.81"/>
    </edge>
    <edge id=":1008274891_7" function="internal">
        <lane id=":1008274891_7_0" index="0" speed="13.89" length="9.59" shape="983.84,7970.78 983.94,7980.37"/>
    </edge>
    <edge id=":1008274891_8" function="internal">
        <lane id=":1008274891_8_0" index="0" speed="20.83" length="7.89" shape="983.84,7970.78 983.45,7972.16 982.26,7973.15 980.26,7973.74 977.45,7973.92"/>
    </edge>
    <edge id=":1008274891_9" function="internal">
        <lane id=":1008274891_9_0" index="0" speed="13.89" length="4.82" shape="983.84,7970.78 983.03,7972.02 982.21,7972.45 981.38,7972.04 980.54,7970.81"/>
    </edge>
    <edge id=":1008298706_0" function="internal">
        <lane id=":1008298706_0_0" index="0" speed="20.12" length="5.00" shape="3164.69,7980.11 3159.70,7980.06"/>
        <lane id=":1008298706_0_1" index="1" speed="20.12" length="5.00" shape="3164.70,7976.81 3159.68,7976.76"/>
    </edge>
    <edge id=":1008298706_2" function="internal">
        <lane id=":1008298706_2_0" index="0" speed="21.17" length="5.43" shape="3163.66,7973.07 3159.68,7976.76"/>
    </edge>
    <edge id=":1008298709_0" function="internal">
        <lane id=":1008298709_0_0" index="0" speed="20.12" length="7.98" shape="3069.43,7980.43 3061.80,7980.41"/>
        <lane id=":1008298709_0_1" index="1" speed="20.12" length="7.98" shape="3069.43,7980.43 3061.81,7977.11"/>
    </edge>
    <edge id=":1008298709_2" function="internal">
        <lane id=":1008298709_2_0" index="0" speed="21.17" length="7.16" shape="3069.42,7977.13 3063.36,7973.32"/>
    </edge>
    <edge id=":1008298727_0" function="internal">
        <lane id=":1008298727_0_0" index="0" speed="20.12" length="12.26" shape="3059.25,7980.40 3055.72,7979.87 3053.43,7978.73 3051.13,7977.58 3047.61,7977.06"/>
    </edge>
    <edge id=":1008298727_1" function="internal">
        <lane id=":1008298727_1_0" index="0" speed="21.17" length="6.20" shape="3059.26,7977.10 3057.35,7976.86 3056.41,7976.15 3056.44,7974.97 3057.44,7973.32"/>
    </edge>
    <edge id=":1008298727_2" function="internal">
        <lane id=":1008298727_2_0" index="0" speed="21.17" length="5.98" shape="3049.59,7984.10 3050.40,7982.47 3050.33,7981.30 3049.40,7980.60 3047.59,7980.36"/>
    </edge>
    <edge id=":1008298727_3" function="internal">
        <lane id=":1008298727_3_0" index="0" speed="22.22" length="13.34" shape="3049.59,7984.10 3051.55,7981.21 3053.39,7978.62 3055.30,7976.08 3057.44,7973.32"/>
    </edge>
    <edge id=":1008298729_0" function="internal">
        <lane id=":1008298729_0_0" index="0" speed="21.17" length="5.56" shape="3009.95,7983.93 3005.82,7980.21"/>
    </edge>
    <edge id=":1008298729_1" function="internal">
        <lane id=":1008298729_1_0" index="0" speed="20.12" length="5.00" shape="3010.82,7980.23 3005.82,7980.21"/>
        <lane id=":1008298729_1_1" index="1" speed="20.12" length="5.00" shape="3010.83,7976.93 3005.83,7976.91"/>
    </edge>
    <edge id=":1008298730_0" function="internal">
        <lane id=":1008298730_0_0" index="0" speed="20.12" length="9.49" shape="2863.72,7979.92 2854.24,7979.92"/>
        <lane id=":1008298730_0_1" index="1" speed="20.12" length="9.49" shape="2863.73,7976.62 2854.23,7976.62"/>
    </edge>
    <edge id=":1008298730_2" function="internal">
        <lane id=":1008298730_2_0" index="0" speed="17.00" length="7.85" shape="2863.73,7976.62 2860.93,7976.42 2858.93,7975.84 2857.73,7974.86 2857.34,7973.50"/>
    </edge>
    <edge id=":1008298730_3" function="internal">
        <lane id=":1008298730_3_0" index="0" speed="17.00" length="7.85" shape="2860.64,7973.51 2860.23,7974.87 2859.03,7975.84 2857.03,7976.42 2854.23,7976.62"/>
    </edge>
    <edge id=":1008298730_4" function="internal">
        <lane id=":1008298730_4_0" index="0" speed="13.89" length="4.82" shape="2860.64,7973.51 2859.81,7974.75 2858.98,7975.16 2858.16,7974.74 2857.34,7973.50"/>
    </edge>
    <edge id=":1008298741_0" function="internal">
        <lane id=":1008298741_0_0" index="0" speed="20.12" length="8.65" shape="3161.58,7957.70 3169.92,7957.74"/>
        <lane id=":1008298741_0_1" index="1" speed="20.12" length="8.65" shape="3161.58,7957.70 3169.91,7961.04"/>
    </edge>
    <edge id=":1008298741_2" function="internal">
        <lane id=":1008298741_2_0" index="0" speed="21.17" length="7.91" shape="3161.57,7961.00 3163.15,7961.25 3164.79,7961.96 3166.50,7963.15 3168.28,7964.82"/>
    </edge>
    <edge id=":1008298745_0" function="internal">
        <lane id=":1008298745_0_0" index="0" speed="21.17" length="5.89" shape="3180.02,7954.03 3179.30,7955.66 3179.41,7956.82 3180.35,7957.52 3182.11,7957.74"/>
    </edge>
    <edge id=":1008298745_1" function="internal">
        <lane id=":1008298745_1_0" index="0" speed="22.22" length="11.22" shape="3180.02,7954.03 3178.37,7956.73 3177.07,7958.81 3175.71,7960.85 3173.91,7963.44"/>
    </edge>
    <edge id=":1008298745_2" function="internal">
        <lane id=":1008298745_2_0" index="0" speed="20.12" length="11.73" shape="3171.03,7957.74 3174.39,7958.27 3176.58,7959.41 3178.77,7960.54 3182.13,7961.04"/>
    </edge>
    <edge id=":1008298745_3" function="internal">
        <lane id=":1008298745_3_0" index="0" speed="21.17" length="5.06" shape="3171.01,7961.04 3172.91,7961.20 3174.02,7961.65 3174.35,7962.40 3173.91,7963.44"/>
    </edge>
    <edge id=":1008298751_0" function="internal">
        <lane id=":1008298751_0_0" index="0" speed="21.17" length="10.92" shape="3214.66,7953.91 3217.10,7955.81 3219.10,7956.89 3221.37,7957.38 3224.61,7957.52"/>
    </edge>
    <edge id=":1008298751_1" function="internal">
        <lane id=":1008298751_1_0" index="0" speed="20.12" length="10.69" shape="3213.89,7957.60 3217.07,7957.57 3219.25,7957.53 3221.42,7957.51 3224.61,7957.52"/>
        <lane id=":1008298751_1_1" index="1" speed="20.12" length="10.69" shape="3213.90,7960.90 3217.07,7960.87 3219.24,7960.83 3221.41,7960.81 3224.57,7960.82"/>
    </edge>
    <edge id=":1008298757_0" function="internal">
        <lane id=":1008298757_0_0" index="0" speed="17.00" length="7.84" shape="3348.16,7965.17 3348.56,7963.81 3349.76,7962.85 3351.76,7962.27 3354.56,7962.08"/>
    </edge>
    <edge id=":1008298757_1" function="internal">
        <lane id=":1008298757_1_0" index="0" speed="13.89" length="4.82" shape="3348.16,7965.17 3348.98,7963.93 3349.81,7963.52 3350.63,7963.93 3351.46,7965.17"/>
    </edge>
    <edge id=":1008298757_2" function="internal">
        <lane id=":1008298757_2_0" index="0" speed="20.12" length="9.47" shape="3345.11,7958.72 3354.56,7958.78"/>
        <lane id=":1008298757_2_1" index="1" speed="20.12" length="9.47" shape="3345.07,7962.02 3354.56,7962.08"/>
    </edge>
    <edge id=":1008298757_4" function="internal">
        <lane id=":1008298757_4_0" index="0" speed="17.00" length="7.84" shape="3345.07,7962.02 3347.87,7962.24 3349.86,7962.84 3351.06,7963.82 3351.46,7965.17"/>
    </edge>
    <edge id=":1008298761_0" function="internal">
        <lane id=":1008298761_0_0" index="0" speed="17.00" length="5.03" shape="3512.69,7955.81 3512.89,7957.19 3513.48,7958.17 3514.45,7958.77 3515.80,7958.97"/>
    </edge>
    <edge id=":1008298761_1" function="internal">
        <lane id=":1008298761_1_0" index="0" speed="13.89" length="4.82" shape="3512.69,7955.81 3511.87,7957.06 3511.05,7957.48 3510.22,7957.07 3509.39,7955.84"/>
    </edge>
    <edge id=":1008298761_2" function="internal">
        <lane id=":1008298761_2_0" index="0" speed="17.00" length="5.01" shape="3506.30,7958.95 3507.66,7958.75 3508.63,7958.17 3509.21,7957.20 3509.39,7955.84"/>
    </edge>
    <edge id=":1008298761_3" function="internal">
        <lane id=":1008298761_3_0" index="0" speed="20.12" length="9.49" shape="3506.30,7958.95 3515.80,7958.97"/>
        <lane id=":1008298761_3_1" index="1" speed="20.12" length="9.49" shape="3506.30,7962.25 3515.79,7962.27"/>
    </edge>
    <edge id=":1008298764_0" function="internal">
        <lane id=":1008298764_0_0" index="0" speed="17.00" length="5.03" shape="3570.69,7956.01 3570.84,7957.38 3571.40,7958.36 3572.37,7958.95 3573.74,7959.15"/>
    </edge>
    <edge id=":1008298764_1" function="internal">
        <lane id=":1008298764_1_0" index="0" speed="13.89" length="9.61" shape="3570.69,7956.01 3570.47,7965.61"/>
    </edge>
    <edge id=":1008298764_2" function="internal">
        <lane id=":1008298764_2_0" index="0" speed="13.89" length="4.82" shape="3570.69,7956.01 3569.83,7957.22 3568.99,7957.61 3568.18,7957.17 3567.39,7955.91"/>
    </edge>
    <edge id=":1008298764_3" function="internal">
        <lane id=":1008298764_3_0" index="0" speed="17.00" length="5.20" shape="3564.11,7959.12 3565.51,7958.93 3566.52,7958.33 3567.15,7957.32 3567.39,7955.91"/>
    </edge>
    <edge id=":1008298764_4" function="internal">
        <lane id=":1008298764_4_0" index="0" speed="20.12" length="9.63" shape="3564.11,7959.12 3573.74,7959.15"/>
        <lane id=":1008298764_4_1" index="1" speed="20.12" length="9.63" shape="3564.10,7962.42 3573.73,7962.45"/>
    </edge>
    <edge id=":1008298764_6" function="internal">
        <lane id=":1008298764_6_0" index="0" speed="17.00" length="7.88" shape="3564.10,7962.42 3566.91,7962.63 3568.90,7963.23 3570.09,7964.22 3570.47,7965.61"/>
    </edge>
    <edge id=":1008298764_7" function="internal">
        <lane id=":1008298764_7_0" index="0" speed="13.89" length="9.65" shape="3567.17,7965.56 3567.39,7955.91"/>
    </edge>
    <edge id=":1008298764_8" function="internal">
        <lane id=":1008298764_8_0" index="0" speed="17.00" length="7.98" shape="3567.17,7965.56 3567.60,7964.19 3568.83,7963.22 3570.88,7962.64 3573.73,7962.45"/>
    </edge>
    <edge id=":1008298764_9" function="internal">
        <lane id=":1008298764_9_0" index="0" speed="13.89" length="4.82" shape="3567.17,7965.56 3568.01,7964.33 3568.85,7963.93 3569.66,7964.36 3570.47,7965.61"/>
    </edge>
    <edge id=":1008298766_0" function="internal">
        <lane id=":1008298766_0_0" index="0" speed="13.89" length="9.60" shape="3712.87,7966.00 3712.87,7956.40"/>
    </edge>
    <edge id=":1008298766_1" function="internal">
        <lane id=":1008298766_1_0" index="0" speed="17.00" length="8.02" shape="3712.87,7966.00 3713.28,7964.65 3714.51,7963.66 3716.56,7963.03 3719.43,7962.74"/>
    </edge>
    <edge id=":1008298766_2" function="internal">
        <lane id=":1008298766_2_0" index="0" speed="13.89" length="4.82" shape="3712.87,7966.00 3713.69,7964.76 3714.52,7964.35 3715.34,7964.76 3716.17,7966.00"/>
    </edge>
    <edge id=":1008298766_3" function="internal">
        <lane id=":1008298766_3_0" index="0" speed="17.00" length="5.04" shape="3716.17,7956.39 3716.36,7957.77 3716.95,7958.73 3717.94,7959.29 3719.32,7959.44"/>
    </edge>
    <edge id=":1008298766_4" function="internal">
        <lane id=":1008298766_4_0" index="0" speed="13.89" length="9.60" shape="3716.17,7956.39 3716.17,7966.00"/>
    </edge>
    <edge id=":1008298766_5" function="internal">
        <lane id=":1008298766_5_0" index="0" speed="13.89" length="4.82" shape="3716.17,7956.39 3715.34,7957.63 3714.52,7958.05 3713.69,7957.63 3712.87,7956.40"/>
    </edge>
    <edge id=":1008298766_6" function="internal">
        <lane id=":1008298766_6_0" index="0" speed="17.00" length="5.08" shape="3709.76,7959.59 3711.12,7959.39 3712.09,7958.80 3712.67,7957.80 3712.87,7956.40"/>
    </edge>
    <edge id=":1008298766_7" function="internal">
        <lane id=":1008298766_7_0" index="0" speed="20.12" length="9.62" shape="3709.76,7959.59 3719.32,7959.44"/>
        <lane id=":1008298766_7_1" index="1" speed="20.12" length="9.62" shape="3709.75,7962.89 3719.43,7962.74"/>
    </edge>
    <edge id=":1008298766_9" function="internal">
        <lane id=":1008298766_9_0" index="0" speed="17.00" length="7.86" shape="3709.75,7962.89 3712.56,7963.09 3714.56,7963.68 3715.77,7964.65 3716.17,7966.00"/>
    </edge>
    <edge id=":1008298767_0" function="internal">
        <lane id=":1008298767_0_0" index="0" speed="20.12" length="9.45" shape="3758.48,7958.12 3767.88,7957.71"/>
        <lane id=":1008298767_0_1" index="1" speed="20.12" length="9.45" shape="3758.59,7961.42 3768.06,7961.00"/>
    </edge>
    <edge id=":1008298767_2" function="internal">
        <lane id=":1008298767_2_0" index="0" speed="21.17" length="7.98" shape="3758.59,7961.42 3761.42,7961.53 3763.43,7962.08 3764.64,7963.08 3765.02,7964.52"/>
    </edge>
    <edge id=":1008298767_3" function="internal">
        <lane id=":1008298767_3_0" index="0" speed="21.17" length="7.91" shape="3761.72,7964.48 3762.13,7963.09 3763.32,7962.04 3765.30,7961.35 3768.06,7961.00"/>
    </edge>
    <edge id=":1008298767_4" function="internal">
        <lane id=":1008298767_4_0" index="0" speed="22.22" length="4.82" shape="3761.72,7964.48 3762.56,7963.26 3763.39,7962.85 3764.21,7963.27 3765.02,7964.52"/>
    </edge>
    <edge id=":1008298772_0" function="internal">
        <lane id=":1008298772_0_0" index="0" speed="21.17" length="7.76" shape="3866.70,7952.82 3866.86,7951.47 3867.85,7950.29 3869.67,7949.28 3872.32,7948.45"/>
    </edge>
    <edge id=":1008298772_1" function="internal">
        <lane id=":1008298772_1_0" index="0" speed="22.22" length="4.82" shape="3866.70,7952.82 3867.30,7951.46 3868.04,7950.91 3868.92,7951.17 3869.95,7952.25"/>
    </edge>
    <edge id=":1008298772_2" function="internal">
        <lane id=":1008298772_2_0" index="0" speed="20.12" length="9.23" shape="3862.63,7947.01 3871.55,7945.25"/>
        <lane id=":1008298772_2_1" index="1" speed="20.12" length="9.23" shape="3863.13,7950.27 3872.32,7948.45"/>
    </edge>
    <edge id=":1008298772_4" function="internal">
        <lane id=":1008298772_4_0" index="0" speed="21.17" length="7.79" shape="3863.13,7950.27 3865.92,7950.03 3867.98,7950.28 3869.33,7951.02 3869.95,7952.25"/>
    </edge>
    <edge id=":1008298797_0" function="internal">
        <lane id=":1008298797_0_0" index="0" speed="27.78" length="1.59" shape="2461.30,7980.53 2461.30,7980.53"/>
        <lane id=":1008298797_0_1" index="1" speed="27.78" length="1.59" shape="2461.29,7977.23 2458.21,7977.23"/>
    </edge>
    <edge id=":1008298797_2" function="internal">
        <lane id=":1008298797_2_0" index="0" speed="25.00" length="3.08" shape="2461.29,7977.23 2458.21,7977.15"/>
    </edge>
    <edge id=":1008298799_0" function="internal">
        <lane id=":1008298799_0_0" index="0" speed="25.00" length="5.12" shape="2146.08,7984.31 2145.86,7982.92 2145.26,7981.94 2144.26,7981.34 2142.87,7981.14"/>
    </edge>
    <edge id=":1008298799_1" function="internal">
        <lane id=":1008298799_1_0" index="0" speed="22.22" length="9.58" shape="2146.08,7984.31 2145.96,7974.73"/>
    </edge>
    <edge id=":1008298799_2" function="internal">
        <lane id=":1008298799_2_0" index="0" speed="22.22" length="4.82" shape="2146.08,7984.31 2146.89,7983.06 2147.71,7982.64 2148.54,7983.04 2149.38,7984.27"/>
    </edge>
    <edge id=":1008298799_3" function="internal">
        <lane id=":1008298799_3_0" index="0" speed="25.00" length="5.01" shape="2152.46,7981.15 2151.10,7981.34 2150.13,7981.93 2149.56,7982.90 2149.38,7984.27"/>
    </edge>
    <edge id=":1008298799_4" function="internal">
        <lane id=":1008298799_4_0" index="0" speed="27.78" length="9.58" shape="2152.46,7981.15 2142.87,7981.14"/>
        <lane id=":1008298799_4_1" index="1" speed="27.78" length="9.58" shape="2152.45,7977.85 2142.88,7977.84"/>
    </edge>
    <edge id=":1008298799_6" function="internal">
        <lane id=":1008298799_6_0" index="0" speed="25.00" length="7.93" shape="2152.45,7977.85 2149.63,7977.66 2147.60,7977.07 2146.38,7976.10 2145.96,7974.73"/>
    </edge>
    <edge id=":1008298799_7" function="internal">
        <lane id=":1008298799_7_0" index="0" speed="22.22" length="9.58" shape="2149.26,7974.69 2149.38,7984.27"/>
    </edge>
    <edge id=":1008298799_8" function="internal">
        <lane id=":1008298799_8_0" index="0" speed="25.00" length="7.89" shape="2149.26,7974.69 2148.88,7976.07 2147.69,7977.06 2145.69,7977.65 2142.88,7977.84"/>
    </edge>
    <edge id=":1008298799_9" function="internal">
        <lane id=":1008298799_9_0" index="0" speed="22.22" length="4.82" shape="2149.26,7974.69 2148.45,7975.93 2147.63,7976.36 2146.80,7975.95 2145.96,7974.73"/>
    </edge>
    <edge id=":1008298802_0" function="internal">
        <lane id=":1008298802_0_0" index="0" speed="27.78" length="1.60" shape="1896.73,7980.39 1896.73,7980.39"/>
        <lane id=":1008298802_0_1" index="1" speed="27.78" length="1.60" shape="1896.74,7977.09 1893.64,7977.08"/>
    </edge>
    <edge id=":1008298802_2" function="internal">
        <lane id=":1008298802_2_0" index="0" speed="25.00" length="3.09" shape="1896.74,7977.09 1893.65,7976.99"/>
    </edge>
    <edge id=":1008298807_0" function="internal">
        <lane id=":1008298807_0_0" index="0" speed="20.83" length="5.08" shape="1595.47,7982.68 1595.25,7981.28 1594.66,7980.28 1593.69,7979.68 1592.34,7979.47"/>
    </edge>
    <edge id=":1008298807_1" function="internal">
        <lane id=":1008298807_1_0" index="0" speed="13.89" length="4.82" shape="1595.47,7982.68 1596.27,7981.43 1597.09,7981.00 1597.92,7981.40 1598.77,7982.63"/>
    </edge>
    <edge id=":1008298807_2" function="internal">
        <lane id=":1008298807_2_0" index="0" speed="20.83" length="5.02" shape="1601.84,7979.50 1600.48,7979.69 1599.51,7980.28 1598.94,7981.26 1598.77,7982.63"/>
    </edge>
    <edge id=":1008298807_3" function="internal">
        <lane id=":1008298807_3_0" index="0" speed="27.78" length="9.50" shape="1601.84,7979.50 1592.34,7979.47"/>
        <lane id=":1008298807_3_1" index="1" speed="27.78" length="9.50" shape="1601.85,7976.20 1592.35,7976.17"/>
    </edge>
    <edge id=":1008298810_0" function="internal">
        <lane id=":1008298810_0_0" index="0" speed="20.83" length="5.05" shape="1508.69,7982.38 1508.49,7981.00 1507.90,7980.01 1506.93,7979.42 1505.58,7979.22"/>
    </edge>
    <edge id=":1008298810_1" function="internal">
        <lane id=":1008298810_1_0" index="0" speed="13.89" length="4.82" shape="1508.69,7982.38 1509.50,7981.14 1510.33,7980.72 1511.15,7981.12 1511.99,7982.35"/>
    </edge>
    <edge id=":1008298810_2" function="internal">
        <lane id=":1008298810_2_0" index="0" speed="20.83" length="5.01" shape="1515.08,7979.25 1513.72,7979.44 1512.75,7980.02 1512.17,7980.99 1511.99,7982.35"/>
    </edge>
    <edge id=":1008298810_3" function="internal">
        <lane id=":1008298810_3_0" index="0" speed="27.78" length="9.50" shape="1515.08,7979.25 1505.58,7979.22"/>
        <lane id=":1008298810_3_1" index="1" speed="27.78" length="9.50" shape="1515.09,7975.95 1505.59,7975.92"/>
    </edge>
    <edge id=":1008298827_0" function="internal">
        <lane id=":1008298827_0_0" index="0" speed="17.00" length="5.02" shape="2860.80,7953.10 2860.97,7954.46 2861.54,7955.44 2862.50,7956.03 2863.86,7956.24"/>
    </edge>
    <edge id=":1008298827_1" function="internal">
        <lane id=":1008298827_1_0" index="0" speed="13.89" length="9.57" shape="2860.80,7953.10 2860.69,7962.67"/>
    </edge>
    <edge id=":1008298827_2" function="internal">
        <lane id=":1008298827_2_0" index="0" speed="13.89" length="4.82" shape="2860.80,7953.10 2859.95,7954.32 2859.12,7954.72 2858.30,7954.29 2857.50,7953.03"/>
    </edge>
    <edge id=":1008298827_3" function="internal">
        <lane id=":1008298827_3_0" index="0" speed="17.00" length="5.20" shape="2854.24,7956.26 2855.65,7956.04 2856.66,7955.44 2857.28,7954.43 2857.50,7953.03"/>
    </edge>
    <edge id=":1008298827_4" function="internal">
        <lane id=":1008298827_4_0" index="0" speed="20.12" length="9.59" shape="2854.24,7956.26 2863.86,7956.24"/>
        <lane id=":1008298827_4_1" index="1" speed="20.12" length="9.59" shape="2854.28,7959.56 2863.84,7959.54"/>
    </edge>
    <edge id=":1008298827_6" function="internal">
        <lane id=":1008298827_6_0" index="0" speed="17.00" length="7.89" shape="2854.28,7959.56 2857.09,7959.73 2859.09,7960.30 2860.29,7961.28 2860.69,7962.67"/>
    </edge>
    <edge id=":1008298827_7" function="internal">
        <lane id=":1008298827_7_0" index="0" speed="13.89" length="9.62" shape="2857.39,7962.65 2857.50,7953.03"/>
    </edge>
    <edge id=":1008298827_8" function="internal">
        <lane id=":1008298827_8_0" index="0" speed="17.00" length="7.91" shape="2857.39,7962.65 2857.80,7961.27 2859.01,7960.30 2861.02,7959.72 2863.84,7959.54"/>
    </edge>
    <edge id=":1008298827_9" function="internal">
        <lane id=":1008298827_9_0" index="0" speed="13.89" length="4.82" shape="2857.39,7962.65 2858.22,7961.42 2859.05,7961.01 2859.87,7961.42 2860.69,7962.67"/>
    </edge>
    <edge id=":1008298831_0" function="internal">
        <lane id=":1008298831_0_0" index="0" speed="21.17" length="5.66" shape="3010.60,7957.15 3014.94,7953.51"/>
    </edge>
    <edge id=":1008298831_1" function="internal">
        <lane id=":1008298831_1_0" index="0" speed="20.12" length="5.51" shape="3010.58,7960.45 3015.60,7957.14"/>
        <lane id=":1008298831_1_1" index="1" speed="20.12" length="5.51" shape="3010.58,7960.45 3015.59,7960.44"/>
    </edge>
    <edge id=":1008298835_0" function="internal">
        <lane id=":1008298835_0_0" index="0" speed="22.22" length="10.65" shape="3057.29,7964.25 3055.99,7961.45 3055.20,7959.34 3054.75,7957.14 3054.47,7954.09"/>
    </edge>
    <edge id=":1008298835_1" function="internal">