<?xml version="1.0" encoding="UTF-8"?>

<!-- generated on 04/03/16 16:06:36 by SUMO duarouter Version 0.19.0
<?xml version="1.0" encoding="UTF-8"?>

<configuration xmlns:xsi="http://www.w3.org/2001/XMLSchema-instance" xsi:noNamespaceSchemaLocation="http://sumo-sim.org/xsd/duarouterConfiguration.xsd">

    <input>
        <net-file value="..\Maps\i95highway.net.xml"/>
        <trip-files value="trips.trips.xml"/>
    </input>

    <output>
        <output-file value="i95highway300.rou.xml"/>
    </output>

    <processing>
        <ignore-errors value="true"/>
    </processing>

    <time>
        <begin value="0"/>
        <end value="300.0"/>
    </time>

</configuration>
-->

<routes xmlns:xsi="http://www.w3.org/2001/XMLSchema-instance" xsi:noNamespaceSchemaLocation="http://sumo-sim.org/xsd/routes_file.xsd">
    <vehicle id="0" depart="0.00">
        <routeDistribution last="0">
            <route cost="129.66" probability="1.00000000" edges="10770041 -10770041 -10767732#1 -10767732#0 -10771463#4 -10771463#3 -10771463#2 -10771463#1 -10771463#0 10774793#0 288534959#11 288534959#12 288534959#13 288534959#14 288534965#0 288534965#1 41703037#0 41703037#1"/>
        </routeDistribution>
    </vehicle>
    <vehicle id="1" depart="1.00">
        <routeDistribution last="0">
            <route cost="84.24" probability="1.00000000" edges="218541237#2 -218541237#2 -218541237#1 -218541237#0 10775757#3 10775757#4 86700211#3 86700211#4 86700211#5 10773762#1 10770633#1"/>
        </routeDistribution>
    </vehicle>
    <vehicle id="2" depart="2.00">
        <routeDistribution last="0">
            <route cost="123.94" probability="1.00000000" edges="10778469#0 10778469#1 10778469#2 -10776280 -10775514#4 -10775514#3 -10775514#2 -10775514#1 -10775514#0 10769914#0 -10775909#1 -10775909#0 10779138#2 10779138#3 10779138#4 10779138#5 10779138#6 10770689#0 -10770689#0"/>
        </routeDistribution>
    </vehicle>
    <vehicle id="3" depart="3.00">
        <routeDistribution last="0">
            <route cost="117.92" probability="1.00000000" edges="-10766490 10766490 -10768229#2 -10768229#1 86700213#0 86700213#1 86700213#2 86700213#3 86700211#0 86700211#1 86700211#2 86700211#3 86700211#4 86700211#5 86700211#6 10777275#0 10777275#1 -296360459#13 -296360459#12 -296360459#11 -296360459#10 -296360459#9 10774793#2 10774793#3 133634666 228956271#3 228956271#0 -228956271#0"/>
        </routeDistribution>
    </vehicle>
    <vehicle id="4" depart="4.00">
        <routeDistribution last="0">
            <route cost="176.21" probability="1.00000000" edges="-10777764#0 -10778377#1 -10778377#0 -10775514#3 -10775514#2 -10775514#1 -10775514#0 158601758#0 158601758#1 128992729 10768229#1 10768229#2 10768229#3 10768229#4 10768229#5 10768229#6 -10768229#6"/>
        </routeDistribution>
    </vehicle>
    <vehicle id="5" depart="5.00">
        <routeDistribution last="0">
            <route cost="342.43" probability="1.00000000" edges="-10768965#0 -10768229#7 -10768229#6 -10768229#5 -10768229#4 -10768229#3 -10768229#2 10770765#0 10770765#1 10777824 -10777824"/>
        </routeDistribution>
    </vehicle>
    <vehicle id="8" depart="8.00">
        <routeDistribution last="0">
            <route cost="243.50" probability="1.00000000" edges="-10771463#5 -10771463#4 -10771463#3 -10771463#2 -10771463#1 -10771463#0 10774793#0 288534959#11 288534959#12 288534959#13 288534959#14 288534965#0 288534965#1 41703037#0 41703037#1 41703037#2 41703037#3 41703037#4 41703037#5 41703037#6 41703037#7 86700210#0 86700210#1 86700210#2 86700210#3 86700212 128992728#0 128992728#1 -10775514#0 10769914#0 10769914#1 10780158"/>
        </routeDistribution>
    </vehicle>
    <vehicle id="9" depart="9.00">
        <routeDistribution last="0">
            <route cost="109.78" probability="1.00000000" edges="10772293#3 10772293#4 10772293#5 -10777275#3 -10777275#2 -296360459#13 86700215#0 86700215#1 86700211#8 10772673#0 10772673#1 10772673#2 10767361"/>
        </routeDistribution>
    </vehicle>
    <vehicle id="10" depart="10.00">
        <routeDistribution last="0">
            <route cost="157.55" probability="1.00000000" edges="10775757#3 41703037#5 10767264 291271456#2 40343749#1 10766473 301725004 218101654#0 218101654#1 218101815#1 218101031 291271454 218101016 218101011#1 40343758#1 10767050"/>
        </routeDistribution>
    </vehicle>
    <vehicle id="11" depart="11.00">
        <routeDistribution last="0">
            <route cost="45.20" probability="1.00000000" edges="-10769488#2 -10779138#7 -10779138#6 -10779138#5 -10779138#4"/>
        </routeDistribution>
    </vehicle>
    <vehicle id="13" depart="13.00">
        <routeDistribution last="0">
            <route cost="44.08" probability="1.00000000" edges="10775514#1 10775514#2 10775514#3 10775514#4 10776280 10778469#3 -10778469#3"/>
        </routeDistribution>
    </vehicle>
    <vehicle id="14" depart="14.00">
        <routeDistribution last="0">
            <route cost="188.14" probability="1.00000000" edges="-10776848 10776848 158601756#2 158601756#3 10779743#1 86697277#2 86697277#3 86697277#4 158601758#0 158601758#1 128992729 86700213#0 86700213#1 86700213#2 86700213#3 86700211#0 86700211#1 86700211#2 86700211#3 86700211#4 86700211#5 10773762#1"/>
        </routeDistribution>
    </vehicle>
    <vehicle id="15" depart="15.00">
        <routeDistribution last="0">
            <route cost="231.93" probability="1.00000000" edges="10768343#1 -10768343#1 10767574 10769067#3 10768235#0 10768235#1 10769202 -10775144#10 -10775144#9 -10775144#8 -10775144#7 -10775144#6 -10775144#5 -10775144#4 -10775144#3 -10775144#2 -10775144#1 296360459#7 296360459#8 296360459#9 296360459#10 296360459#11 296360459#12 296360459#13 -10777275#1 41703037#2 41703037#3 41703037#4 -10775757#3 -10775757#2 218541233#0 218541233#1 218541233#2 218541233#3 218541244#0 218541244#1 218541244#2 218541244#3 -218541241 218541227#3"/>
        </routeDistribution>
    </vehicle>
    <vehicle id="16" depart="16.00">
        <routeDistribution last="0">
            <route cost="183.62" probability="1.00000000" edges="-86697327#1 -86697327#0 86697327#2 86697327#3 86697277#1 86697277#2 86697277#3 86697277#4 10775514#0 10775514#1 10775514#2 10775514#3 10775514#4 10776280 10778469#3 10772662#0 10772662#1"/>
        </routeDistribution>
    </vehicle>
    <vehicle id="18" depart="18.00">
        <routeDistribution last="0">
            <route cost="204.05" probability="1.00000000" edges="10774277#2 -10774277#2 -10774277#1 -10774277#0 -10769914#4 -10769914#3 -10769914#2 -10769914#1 -10775909#1 -10775909#0 -10779138#1 10775761#0 10775761#1 10775761#2 10775761#3 -10768985#0 -10770681"/>
        </routeDistribution>
    </vehicle>
    <vehicle id="19" depart="19.00">
        <routeDistribution last="0">
            <route cost="347.09" probability="1.00000000" edges="10775144#16 -10775144#16 -10775144#15 -10775144#14 -10775144#13 -10775144#12 -10775144#11 -10775144#10 -10775144#9 -10775144#8 -10775144#7 -10775144#6 -10775144#5 -10775144#4 -10775144#3 -10775144#2 -10775144#1 296360459#7 296360459#8 296360459#9 296360459#10 296360459#11 296360459#12 296360459#13 -10777275#1 41703037#2 41703037#3 41703037#4 41703037#5 10767264 291271456#2 40343749#1 10766473 301725004 218101654#0 218101654#1 218101815#1 218101815#2 51738140#0 51738140#1 51738140#2 51738140#3 10770520 -10770521#0 -10775346#7 -10775346#6 -10775346#5 -10775346#4 10776423 10774808#0 10774808#1 218099093#0"/>
        </routeDistribution>
    </vehicle>
    <vehicle id="20" depart="20.00">
        <routeDistribution last="0">
            <route cost="68.93" probability="1.00000000" edges="-296360459#13 296360459#13 -10777275#1 41703037#2 41703037#3 41703037#4 -10775757#3 -10775757#2 218541233#0 218541233#1 -218541243"/>
        </routeDistribution>
    </vehicle>
    <vehicle id="21" depart="21.00">
        <routeDistribution last="0">
            <route cost="229.25" probability="1.00000000" edges="218541237#5 -218541237#5 -218541237#4 -218541237#3 -218541237#2 -218541237#1 -218541237#0 10775757#3 10775757#4 86700211#3 86700211#4 86700211#5 86700211#6 10777275#0 10777275#1 -296360459#13 -296360459#12 -296360459#11 -296360459#10 -296360459#9 -296360459#8 -296360459#7 10775144#1 10775144#2 10775144#3 10775144#4 10775144#5 10775144#6 10775144#7 10775144#8 10775144#9 10775144#10 10775144#11 10775144#12 10775144#13 10775144#14 10775144#15 10775144#16 10775144#17 10775144#18 10775144#19"/>
        </routeDistribution>
    </vehicle>
    <vehicle id="22" depart="22.00">
        <routeDistribution last="0">
            <route cost="274.70" probability="1.00000000" edges="-10775757#1 10775757#1 10775757#2 10775757#3 10775757#4 86700211#3 86700211#4 86700211#5 86700211#6 10777275#0 10777275#1 -296360459#13 -296360459#12 -296360459#11 -296360459#10 -296360459#9 -296360459#8 -296360459#7 10775144#1 10775144#2 10775144#3 10775144#4 10775144#5 10775144#6 10775144#7 10775144#8 10775144#9 10775144#10 10775144#11 10775144#12 10775144#13 10775144#14 10775144#15 10775144#16 10779146#0 10779146#1 10768171 -10768171"/>
        </routeDistribution>
    </vehicle>
    <vehicle id="24" depart="24.00">
        <routeDistribution last="0">
            <route cost="290.66" probability="1.00000000" edges="10769914#5 -10769914#5 -10769914#4 -10769914#3 -10769914#2 -10769914#1 -10769914#0 158601758#0 158601758#1 128992729 86700213#0 86700213#1 86700213#2 86700213#3 86700211#0 86700211#1 86700211#2 86700211#3 86700211#4 86700211#5 86700211#6 10777275#0 10777275#1 -296360459#13 -296360459#12 -296360459#11 -296360459#10 -296360459#9 -296360459#8 -296360459#7 10775144#1 10775144#2 10775144#3 10775144#4 10775144#5 10775144#6 10775144#7 10775144#8 10775144#9 10775144#10 -10769202 10769202"/>
        </routeDistribution>
    </vehicle>
    <vehicle id="25" depart="25.00">
        <routeDistribution last="0">
            <route cost="388.95" probability="1.00000000" edges="-10768966#0 10768966#0 10768966#1 -10771105#3 -10771105#2 -10771105#1 -10771105#0 10775144#0 -296360459#6 -296360459#5 -296360459#4 -296360459#3 -296360459#2 -296360459#1"/>
        </routeDistribution>
    </vehicle>
    <vehicle id="26" depart="26.00">
        <routeDistribution last="0">
            <route cost="225.92" probability="1.00000000" edges="10779138#10 -10779138#10 -10779138#9 -10779138#8 -10779138#7 -10779138#6 -10779138#5 -10779138#4 -10779138#3 -10779138#2 -10779138#1 -10779138#0 158601758#1 128992729 86700213#0 86700213#1 86700213#2 86700213#3 86700211#0 86700211#1 86700211#2 86700211#3 86700211#4 86700211#5 86700211#6 10777275#0 10777275#1 -296360459#13 -296360459#12 -296360459#11 -296360459#10 -296360459#9 -296360459#8 -296360459#7 10775144#1 10775144#2 10775144#3 -10775144#3"/>
        </routeDistribution>
    </vehicle>
    <vehicle id="27" depart="27.00">
        <routeDistribution last="0">
            <route cost="85.06" probability="1.00000000" edges="-10778377#2 -10778377#1 -10778377#0 -10775514#3 -10775514#2 -10775514#1 -10775514#0 158601758#0 158601758#1 128992729"/>
        </routeDistribution>
    </vehicle>
    <vehicle id="28" depart="28.00">
        <routeDistribution last="0">
            <route cost="252.25" probability="1.00000000" edges="-10771105#3 -10771105#2 -10771105#1 -10771105#0 10775144#0 10775144#1 10775144#2 10775144#3 10775144#4 10775144#5 10775144#6 10775144#7 10775144#8 10775144#9 10775144#10 10775144#11 10775144#12 10775144#13 10775144#14 10775144#15 10775144#16 10775144#17 10775144#18 -10770840#5 -10770840#4 -10770840#3 -10770840#2 -10770840#1 218304778#0 -218304768#2 -218304768#1 -218304774#2 -218304774#1 218304800#0 -218304800#0"/>
        </routeDistribution>
    </vehicle>
    <vehicle id="29" depart="29.00">
        <routeDistribution last="0">
            <route cost="269.63" probability="1.00000000" edges="288534959#1 288534959#2 288534959#3 288534959#4 288534959#5 288534959#6 288534959#7 288534959#8 288534959#9 288534959#10 288534959#11 288534959#12 288534959#13 288534959#14 288534965#0 288534965#1 41703037#0 41703037#1 41703037#2 41703037#3 41703037#4 41703037#5 41703037#6 41703037#7 86700210#0 86700210#1 86700210#2 86700210#3 86700212 128992728#0 128992728#1 -10775514#0 10769914#0 10769914#1 10769914#2 10769914#3 10769914#4 10769914#5"/>
        </routeDistribution>
    </vehicle>
    <vehicle id="30" depart="30.00">
        <routeDistribution last="0">
            <route cost="495.32" probability="1.00000000" edges="10777400#1 -10777400#1 -10777400#0 -10767342#1 -10775761#4 -10775761#3 -10775761#2 -10775761#1 -10775761#0 -10779138#0 158601758#1 128992729 10768229#1 10768229#2 10768229#3 10768229#4 10768229#5 10768229#6 10768229#7 10768965#0 10769629#0 -10777919 10779231 10769429 -10769429"/>
        </routeDistribution>
    </vehicle>
    <vehicle id="31" depart="31.00">
        <routeDistribution last="0">
            <route cost="308.45" probability="1.00000000" edges="-10767924 10769806#1 10769806#2 -10770618 10778782#3 10778782#4 10778782#5 -10767562#0 -10771463#2 -10771463#1 -10771463#0 10774793#0 288534959#11 288534959#12 288534959#13 288534959#14 288534965#0 288534965#1 41703037#0 41703037#1 41703037#2 41703037#3 41703037#4 41703037#5 41703037#6 41703037#7 86700210#0 86700210#1 86700210#2 86700210#3 10768229#0 10768229#1 10768229#2 10768229#3 10772050#0 228920720#0 228920720#1 228920720#2 -10768521#1 -10768521#0 10778241#0 10778241#1"/>
        </routeDistribution>
    </vehicle>
    <vehicle id="32" depart="32.00">
        <routeDistribution last="0">
            <route cost="25.44" probability="1.00000000" edges="-10779131#0 10779131#0 86700211#5 86700211#6 86700211#7 86700211#8 81164849#0 81164849#1"/>
        </routeDistribution>
    </vehicle>
    <vehicle id="33" depart="33.00">
        <routeDistribution last="0">
            <route cost="37.78" probability="1.00000000" edges="86700215#1 -86700215#1 41703037#1 41703037#2 41703037#3 41703037#4 41703037#5 41703037#6 41703037#7 86700210#0 86700210#1"/>
        </routeDistribution>
    </vehicle>
    <vehicle id="34" depart="34.00">
        <routeDistribution last="0">
            <route cost="190.88" probability="1.00000000" edges="-10775346#6 10775346#6 10775346#7 10770521#0 -10770520 -10775514#6 218101020#1 218101011#0 218101011#1 40343758#1 10767050 301725008#0 301725008#1 301725008#2 86700213#3 86700211#0 86700211#1 86700211#2 86700211#3 86700211#4 86700211#5 86700211#6 86700211#7 86700211#8 10772673#0 10772673#1 10772673#2 10772673#3 10772673#4 10768941#2"/>
        </routeDistribution>
    </vehicle>
    <vehicle id="35" depart="35.00">
        <routeDistribution last="0">
            <route cost="219.34" probability="1.00000000" edges="-10774808#0 -10776423 10775346#4 10775346#5 10775346#6 10775346#7 10770521#0 -10770520 -10775514#6 218101020#1 218101011#0 218101011#1 40343758#1 10767050 10767053 86700210#3 10768229#0 10768229#1 10770765#0 10770765#1 10770765#2 10776211 -10776211"/>
        </routeDistribution>
    </vehicle>
    <vehicle id="36" depart="36.00">
        <routeDistribution last="0">
            <route cost="135.03" probability="1.00000000" edges="-10778416#0 -10770765#0 -10768229#1 -10768229#0 86700212 128992728#0 128992728#1 10775514#1 10775514#2 10775514#3 10775514#4 10775514#5 10775514#6 10770520 -10770521#0 -10775346#7"/>
        </routeDistribution>
    </vehicle>
    <vehicle id="37" depart="37.00">
        <routeDistribution last="0">
            <route cost="101.42" probability="1.00000000" edges="-10778154#0 10778154#0 10778154#1 10777482#1 -10778377#0 -10775514#3 -10775514#2 -10775514#1 -10775514#0 158601758#0 158601758#1 128992729 10768229#1"/>
        </routeDistribution>
    </vehicle>
    <vehicle id="38" depart="38.00">
        <routeDistribution last="0">
            <route cost="278.10" probability="1.00000000" edges="10774088#1 10778782#0 10778782#1 10778782#2 10778782#3 10778782#4 10778782#5 -10767562#0 -10771463#2 -10771463#1 -10771463#0 10774793#0 288534959#11 288534959#12 288534959#13 288534959#14 288534965#0 288534965#1 41703037#0 41703037#1 41703037#2 41703037#3 41703037#4 41703037#5 10767264 291271456#2 40343749#1 10766473 10766552 218101656#1 10775515#0 218101027#1 218101027#2 218101027#3"/>
        </routeDistribution>
    </vehicle>
    <vehicle id="39" depart="39.00">
        <routeDistribution last="0">
            <route cost="108.07" probability="1.00000000" edges="10770681 10768985#0 -10775761#3 -10775761#2 -10775761#1 -10775761#0 10779138#1 10775909#0 10775909#1 -10769914#0 10775514#0 10775514#1 10775514#2 10775514#3 10775514#4 10776280 10778469#3 10772662#0"/>
        </routeDistribution>
    </vehicle>
    <vehicle id="40" depart="40.00">
        <routeDistribution last="0">
            <route cost="153.08" probability="1.00000000" edges="10772293#2 10772293#3 10772293#4 10772293#5 -10777275#3 -10777275#2 -10777275#1 41703037#2 41703037#3 41703037#4 41703037#5 41703037#6 41703037#7 86700210#0 86700210#1 86700210#2 86700210#3 86700212 128992728#0 86700219 10779138#0 10775761#0 10772153#1"/>
        </routeDistribution>
    </vehicle>
    <vehicle id="41" depart="41.00">
        <routeDistribution last="0">
            <route cost="447.82" probability="1.00000000" edges="218099091#1 10775346#1 218099092 218099093#3 218099093#4 218099093#5 10775346#3 10775346#4 10775346#5 10775346#6 10775346#7 10770521#0 -10770520 -10775514#6 218101020#1 218101011#0 218101011#1 40343758#1 10767050 301725008#0 301725008#1 301725008#2 86700213#3 86700211#0 86700211#1 86700211#2 86700211#3 86700211#4 86700211#5 86700211#6 10777275#0 10777275#1 -296360459#13 -296360459#12 -296360459#11 -296360459#10 -296360459#9 -296360459#8 -296360459#7 10775144#1 10775144#2 10775144#3 10775144#4 10775144#5 10775144#6 10775144#7 10775144#8 10775144#9 10775144#10 10775144#11 10775144#12 10775144#13 10775144#14 10775144#15 10775144#16 10775144#17 10775144#18 -10770840#5 -10770840#4 -10770840#3 -10770840#2 -10770840#1 218304778#0 -218304768#2 -218304768#1 -218304774#2 -218304774#1 218304800#0 -218304800#0"/>
        </routeDistribution>
    </vehicle>
    <vehicle id="42" depart="42.00">
        <routeDistribution last="0">
            <route cost="262.85" probability="1.00000000" edges="10771885 -10771885 10779547#1 10769624#1 -10775144#6 -10775144#5 -10775144#4 -10775144#3 -10775144#2 -10775144#1 296360459#7 296360459#8 296360459#9 296360459#10 296360459#11 296360459#12 296360459#13 -10777275#1 41703037#2 41703037#3 41703037#4 41703037#5 41703037#6 41703037#7 86700210#0 86700210#1 86700210#2 86700210#3 10768229#0 10768229#1 10768229#2 10768229#3 10768229#4 10768229#5"/>
        </routeDistribution>
    </vehicle>
    <vehicle id="43" depart="43.00">
        <routeDistribution last="0">
            <route cost="179.06" probability="1.00000000" edges="-10772050#1 -10772050#0 -10768229#3 -10768229#2 -10768229#1 -10768229#0 86700212 128992728#0 128992728#1 -10775514#0 10769914#0 10769914#1 10769914#2 10769914#3 10769914#4 10769914#5 -10769627"/>
        </routeDistribution>
    </vehicle>
    <vehicle id="45" depart="45.00">
        <routeDistribution last="0">
            <route cost="201.54" probability="1.00000000" edges="10769963#1 -10769963#1 -10769963#0 -10768941#2 -10772673#4 -10772673#3 -10772673#2 -10772673#1 -10772673#0 288534970 41703037#0 41703037#1 41703037#2 41703037#3 41703037#4 41703037#5 41703037#6 41703037#7 86700210#0 86700210#1 86700210#2 86700210#3 86700212 128992728#0 86700219 10779138#0 10779138#1 10779138#2 10779138#3 10779138#4 10779138#5 10779138#6 10770689#0 10770275 10769488#3"/>
        </routeDistribution>
    </vehicle>
    <vehicle id="46" depart="46.00">
        <routeDistribution last="0">
            <route cost="183.97" probability="1.00000000" edges="10774793#0 288534959#11 288534959#12 288534959#13 288534959#14 288534965#0 288534965#1 41703037#0 41703037#1 41703037#2 41703037#3 41703037#4 41703037#5 41703037#6 41703037#7 86700210#0 86700210#1 86700210#2 86700210#3 86700212 128992728#0 128992728#1 158601756#0 158601756#1 158601756#2 158601756#3 158601756#4 -86697327#2 86697327#0 -86697327#0"/>
        </routeDistribution>
    </vehicle>
    <vehicle id="47" depart="47.00">
        <routeDistribution last="0">
            <route cost="77.09" probability="1.00000000" edges="-10774793#0 128992727#4 128992727#5 128992727#6 128992727#7 128992727#8 128992727#9 128992727#10 128992727#11 -10769661#1 -10769661#0"/>
        </routeDistribution>
    </vehicle>
    <vehicle id="49" depart="49.00">
        <routeDistribution last="0">
            <route cost="20.81" probability="1.00000000" edges="218304778#7 218304778#8 218304778#9 218304778#10 218304770#1 218304770#2"/>
        </routeDistribution>
    </vehicle>
    <vehicle id="50" depart="50.00">
        <routeDistribution last="0">
            <route cost="157.15" probability="1.00000000" edges="218541239 -218541244#5 -218541244#4 -218541244#3 -218541244#2 -218541244#1 -218541244#0 -218541233#3 -218541233#2 -218541233#1 -218541233#0 10775757#2 10775757#3 10775757#4 86700211#3 86700211#4 86700211#5 86700211#6 86700211#7 86700211#8 81164849#0 81164849#1 128992727#0 128992727#1 128992727#2 128992727#3 128992727#4 128992727#5 128992727#6 128992727#7 128992727#8 128992727#9 128992727#10 -10770947#1 10770947#1"/>
        </routeDistribution>
    </vehicle>
    <vehicle id="52" depart="52.00">
        <routeDistribution last="0">
            <route cost="66.69" probability="1.00000000" edges="-10774793#3 -10774793#2 -296360459#8 -296360459#7 10775144#1 -10775144#1"/>
        </routeDistribution>
    </vehicle>
    <vehicle id="53" depart="53.00">
        <routeDistribution last="0">
            <route cost="105.54" probability="1.00000000" edges="-86697327#0 86697327#2 86697327#3 86697277#1 86697277#2 86697277#3 86697277#4 10769914#0 -10775909#1 -10775909#0 10779138#2 10779138#3 -10779138#3"/>
        </routeDistribution>
    </vehicle>
    <vehicle id="54" depart="54.00">
        <routeDistribution last="0">
            <route cost="95.32" probability="1.00000000" edges="10775514#0 -10775514#0 158601758#0 158601758#1 128992729 10768229#1 10770765#0 10778416#0 10778416#1"/>
        </routeDistribution>
    </vehicle>
    <vehicle id="55" depart="55.00">
        <routeDistribution last="0">
            <route cost="112.88" probability="1.00000000" edges="218101024#2 218101654#0 218101654#1 218101815#1 218101031 291271454 218101016 218101011#1 40343758#1 10767050 301725008#0 301725008#1 301725008#2 86700213#3 86700211#0 86700211#1 86700211#2 -10775757#4 -10775757#3 -10775757#2 218541233#0 218541233#1 218541233#2"/>
        </routeDistribution>
    </vehicle>
    <vehicle id="56" depart="56.00">
        <routeDistribution last="0">
            <route cost="445.88" probability="1.00000000" edges="-218316338#0 10770840#2 10770840#3 10770840#4 10770840#5 -10775144#18 -10775144#17 -10775144#16 -10775144#15 -10775144#14 -10775144#13 -10775144#12 -10775144#11 -10775144#10 -10775144#9 -10775144#8 -10775144#7 -10775144#6 -10775144#5 -10775144#4 -10775144#3 -10775144#2 -10775144#1 296360459#7 296360459#8 296360459#9 296360459#10 296360459#11 296360459#12 296360459#13 -10777275#1 41703037#2 41703037#3 41703037#4 41703037#5 10767264 291271456#2 40343749#1 10766473 301725004 218101654#0 218101654#1 218101815#1 218101815#2 51738140#0 51738140#1 51738140#2 51738140#3 51738140#4 51738140#5 51738140#6 128992807 158601947#0 158601947#1 158601948 -158601948"/>
        </routeDistribution>
    </vehicle>
    <vehicle id="57" depart="57.00">
        <routeDistribution last="0">
            <route cost="137.87" probability="1.00000000" edges="-10769963#0 10769963#0 10769963#1 -10770852#1 10769516#0 10777138#0 10769015 10771463#2 10771463#3 10771463#4 10767732#0 10767732#1 10770041 -10768262"/>
        </routeDistribution>
    </vehicle>
    <vehicle id="58" depart="58.00">
        <routeDistribution last="0">
            <route cost="254.56" probability="1.00000000" edges="10769624#1 -10775144#6 -10775144#5 -10775144#4 -10775144#3 -10775144#2 -10775144#1 296360459#7 296360459#8 296360459#9 296360459#10 296360459#11 296360459#12 296360459#13 -10777275#1 41703037#2 41703037#3 41703037#4 41703037#5 41703037#6 41703037#7 86700210#0 86700210#1 86700210#2 86700210#3 10768229#0 10768229#1 10770765#0 10770765#1 10770765#2 10770765#3 10770765#4 10770765#5 10770765#6 10772319#0 10772319#1 10768399 -10768399"/>
        </routeDistribution>
    </vehicle>
    <vehicle id="59" depart="59.00">
        <routeDistribution last="0">
            <route cost="149.12" probability="1.00000000" edges="10779138#10 -10779138#10 -10779138#9 -10779138#8 -10779138#7 -10779138#6 -10779138#5 -10779138#4 -10779138#3 -10779138#2 -10779138#1 -10779138#0 158601758#1 128992729 86700213#0 86700213#1 86700213#2 86700213#3 86700211#0 86700211#1 86700211#2 -10775757#4 -10775757#3 -10775757#2 218541233#0 218541233#1 218541233#2 218541233#3 218541233#4"/>
        </routeDistribution>
    </vehicle>
    <vehicle id="61" depart="61.00">
        <routeDistribution last="0">
            <route cost="302.95" probability="1.00000000" edges="-10770840#4 10770840#4 10770840#5 -10775144#18 -10775144#17 -10775144#16 -10775144#15 -10775144#14 -10775144#13 -10775144#12 -10775144#11 -10775144#10 -10775144#9 -10775144#8 -10775144#7 -10775144#6 -10775144#5 -10775144#4 -10775144#3 -10775144#2 -10775144#1 296360459#7 296360459#8 296360459#9 296360459#10 296360459#11 296360459#12 296360459#13 -10777275#1 41703037#2 41703037#3 41703037#4 41703037#5 41703037#6 41703037#7 86700210#0 86700210#1 86700210#2 86700210#3 86700212 128992728#0 128992728#1 10775514#1 10775514#2 10775514#3 10778377#0 -10777482#1 -10777482#0 10777482#0"/>
        </routeDistribution>
    </vehicle>
    <vehicle id="62" depart="62.00">
        <routeDistribution last="0">
            <route cost="217.06" probability="1.00000000" edges="-218541234 -218541233#7 -218541233#6 -218541233#5 -218541233#4 -218541233#3 -218541233#2 -218541233#1 -218541233#0 10775757#2 10775757#3 10775757#4 86700211#3 86700211#4 86700211#5 86700211#6 10777275#0 10777275#1 -296360459#13 -296360459#12 -296360459#11 -296360459#10 -296360459#9 -296360459#8 -296360459#7 10775144#1 10775144#2 10775144#3 10775144#4 10775144#5 10775144#6 -10769624#1 -10779547#1 10771885"/>
        </routeDistribution>
    </vehicle>
    <vehicle id="64" depart="64.00">
        <routeDistribution last="0">
            <route cost="137.10" probability="1.00000000" edges="10773182 -10773182 -10777275#7 -10777275#6 -10777275#5 -10777275#4 -10777275#3 -10777275#2 -296360459#13 86700215#0 86700215#1 86700211#8 81164849#0 81164849#1 128992727#0 128992727#1 128992727#2 128992727#3 10774793#0"/>
        </routeDistribution>
    </vehicle>
    <vehicle id="65" depart="65.00">
        <routeDistribution last="0">
            <route cost="226.07" probability="1.00000000" edges="10775514#1 -10775514#1 -10775514#0 158601758#0 158601758#1 128992729 86700213#0 86700213#1 86700213#2 86700213#3 86700211#0 86700211#1 86700211#2 86700211#3 86700211#4 86700211#5 86700211#6 10777275#0 10777275#1 -296360459#13 -296360459#12 -296360459#11 -296360459#10 -296360459#9 -296360459#8 -296360459#7 -296360459#6 -296360459#5 -296360459#4 -296360459#3 10767395#0 10769671"/>
        </routeDistribution>
    </vehicle>
    <vehicle id="66" depart="66.00">
        <routeDistribution last="0">
            <route cost="227.40" probability="1.00000000" edges="10776432#0 -10772050#2 -10772050#1 -10772050#0 -10768229#3 -10768229#2 -10768229#1 86700213#0 86700213#1 86700213#2 86700213#3 86700211#0 86700211#1 86700211#2 86700211#3 86700211#4 86700211#5 86700211#6 86700211#7 86700211#8 81164849#0 81164849#1 128992727#0 128992727#1 128992727#2 128992727#3 10771463#0 10771463#1 10771463#2 10771463#3 10771463#4 10767732#0 10778704 -10778704"/>
        </routeDistribution>
    </vehicle>
    <vehicle id="68" depart="68.00">
        <routeDistribution last="0">
            <route cost="105.03" probability="1.00000000" edges="288534948 288534959#9 -288534956 128992727#5 128992727#6 128992727#7 128992727#8 -10771105#1 -10771105#0 10775144#0 10775144#1 10775144#2 10775144#3 10775144#4 10775144#5 10775144#6 10775144#7 -10771929#4 -10771929#3 -10771929#2 -10778440#1"/>
        </routeDistribution>
    </vehicle>
    <vehicle id="69" depart="69.00">
        <routeDistribution last="0">
            <route cost="358.12" probability="1.00000000" edges="10768966#0 10768966#1 -10771105#3 -10771105#2 -10771105#1 288534959#6 288534959#7 288534959#8 288534959#9 288534959#10 288534959#11 288534959#12 288534959#13 288534959#14 288534965#0 288534965#1 41703037#0 41703037#1 41703037#2 41703037#3 41703037#4 41703037#5 41703037#6 41703037#7 86700210#0 86700210#1 86700210#2 86700210#3 10768229#0 10768229#1 10768229#2 10768229#3 10772050#0 228920720#0 228920720#1 -10776432#2"/>
        </routeDistribution>
    </vehicle>
    <vehicle id="71" depart="71.00">
        <routeDistribution last="0">
            <route cost="418.73" probability="1.00000000" edges="-218304800#0 218304774#1 218304774#2 218304768#1 218304768#2 -218304778#0 10770840#1 10770840#2 10770840#3 10770840#4 10770840#5 -10775144#18 -10775144#17 -10775144#16 -10775144#15 -10775144#14 -10775144#13 -10775144#12 -10775144#11 -10775144#10 -10775144#9 -10775144#8 -10775144#7 -10775144#6 -10775144#5 -10775144#4 -10775144#3 -10775144#2 -10775144#1 296360459#7 296360459#8 296360459#9 296360459#10 296360459#11 296360459#12 296360459#13 -10777275#1 41703037#2 41703037#3 41703037#4 41703037#5 10767264 291271456#2 40343749#1 10766473 10766552 218101656#1 10775515#0 10775515#1 10775515#2 10775515#3 10775515#4 229630231"/>
        </routeDistribution>
    </vehicle>
    <vehicle id="73" depart="73.00">
        <routeDistribution last="0">
            <route cost="62.08" probability="1.00000000" edges="218101020#0 10775514#6 51738140#4 51738140#5 218099711#0 218099711#1 218099711#2"/>
        </routeDistribution>
    </vehicle>