<?xml version="1.0" encoding="UTF-8"?>

<!-- generated on 05/14/17 17:21:04 by SUMO duarouter Version 0.29.0
<?xml version="1.0" encoding="UTF-8"?>

<configuration xmlns:xsi="http://www.w3.org/2001/XMLSchema-instance" xsi:noNamespaceSchemaLocation="http://sumo.dlr.de/xsd/duarouterConfiguration.xsd">

    <input>
        <net-file value="F:\Dev\GitHub\VANETProject\simulations\_maps\i95highway\i95highway.net.xml"/>
        <trip-files value="trips.trips.xml"/>
    </input>

    <output>
        <output-file value="i95highway250.rou.xml"/>
    </output>

    <processing>
        <ignore-errors value="true"/>
    </processing>

    <time>
        <begin value="1000.0"/>
        <end value="3600.0"/>
    </time>

    <report>
        <no-warnings value="true"/>
        <no-step-log value="true"/>
    </report>

</configuration>
-->

<routes xmlns:xsi="http://www.w3.org/2001/XMLSchema-instance" xsi:noNamespaceSchemaLocation="http://sumo.dlr.de/xsd/routes_file.xsd">
    <vehicle id="0" depart="1000.00">
        <route edges="-81175922#0 -10771105#3 -10771105#2 -10771105#1 288534959#6 288534959#7 288534959#8 288534959#9 288534959#10 288534959#11 288534959#12 288534959#13 288534959#14 288534965#0 288534965#1 -288534970 10772673#0 10772673#1 10772673#2 10772673#3 10772673#4 -10768941#1 10770839"/>
    </vehicle>
    <vehicle id="2" depart="1020.00">
        <route edges="-10768941#2 -10772673#4 -10772673#3 -10772673#2 -10772673#1 -10772673#0 288534970 41703037#0 41703037#1 41703037#2 41703037#3 41703037#4 41703037#5 41703037#6 41703037#7 86700210#0 86700210#1 86700210#2 86700210#3 86700212 128992728#0 86700219 10779138#0 10775761#0 10775761#1"/>
    </vehicle>
    <vehicle id="4" depart="1040.00">
        <route edges="10769914#3 -10769914#3 -10769914#2 -10769914#1 -10769914#0 158601758#0 158601758#1 128992729 86700213#0 86700213#1 86700213#2 86700213#3 86700211#0 86700211#1 86700211#2 86700211#3 86700211#4 86700211#5 86700211#6 10777275#0 10777275#1 10777275#2 10777275#3 -10772293#5 -10772293#4 -10772293#3 -10772293#2 -10772293#1 -10772293#0 -218327575#0"/>
    </vehicle>
    <vehicle id="5" depart="1050.00">
        <route edges="-10775144#5 -10775144#4 -10775144#3 -10775144#2 -10775144#1 296360459#7 296360459#8 296360459#9 296360459#10 296360459#11 296360459#12 296360459#13 -10777275#1 41703037#2 41703037#3 41703037#4 41703037#5 41703037#6 41703037#7 86700210#0 86700210#1 86700210#2 86700210#3 86700212 128992728#0 86700219 10779138#0 10779138#1 10775909#0 10775125"/>
    </vehicle>
    <vehicle id="6" depart="1060.00">
        <route edges="10775514#0 10775514#1 10775514#2 10775514#3 10775514#4 10776280 -10778469#2 10778469#2"/>
    </vehicle>
    <vehicle id="7" depart="1070.00">
        <route edges="10780228#0 -10780228#0 10776848 -10776848"/>
    </vehicle>
    <vehicle id="8" depart="1080.00">
        <route edges="-10766490 10766490 -10768229#2 -10768229#1 86700213#0 86700213#1 86700213#2 86700213#3 86700211#0 86700211#1 86700211#2 86700211#3 86700211#4 86700211#5 86700211#6 86700211#7 86700211#8 81164849#0 81164849#1 128992727#0 128992727#1 128992727#2 128992727#3 10771463#0 10771463#1 10771463#2 10767562#0 -10778782#5 -10778782#4 -10778782#3 10770618 10769806#3 10779635"/>
    </vehicle>
    <vehicle id="9" depart="1090.00">
        <route edges="-10775515#4 -10775515#3 -10775515#2 -10775515#1 218101027#1 218101027#2 218101027#3 218101815#0 218101815#1 218101031 291271454 218101016 218101011#1 40343758#1 10767050 10767053 86700210#3 10768229#0 10768229#1 10770765#0 10770765#1 10770765#2 10770765#3 10770765#4 10767831"/>
    </vehicle>
    <vehicle id="10" depart="1100.00">
        <route edges="10767936#1 10767936#2 10774721#1 -10775960#0 -10768229#6 -10768229#5 -10768229#4 -10768229#3 -10768229#2 10770765#0 10770765#1 10770765#2"/>
    </vehicle>
    <vehicle id="11" depart="1110.00">
        <route edges="10771929#0 10776565#0 10778440#0 -10777341"/>
    </vehicle>
    <vehicle id="12" depart="1120.00">
        <route edges="10775346#1 218099092 218099093#3 218099093#4 218099093#5 10775346#3 10775346#4 10775346#5 10775346#6 10775346#7 10770521#0 -10770520 -10775514#6 -10775514#5 -10775514#4 -10775514#3 -10775514#2 -10775514#1 -10775514#0 10769914#0 10769914#1"/>
    </vehicle>
    <vehicle id="13" depart="1130.00">
        <route edges="10772153#1 -10772153#1 -10775761#0 -10779138#0 158601758#1 128992729 86700213#0 86700213#1 86700213#2 86700213#3 86700211#0 86700211#1 86700211#2 86700211#3 86700211#4 -10779131#0"/>
    </vehicle>
    <vehicle id="14" depart="1140.00">
        <route edges="41703037#7 86700210#0 86700210#1 86700210#2 86700210#3 86700212 128992728#0 86700219 10779138#0 10779138#1 10779138#2 10779138#3 10779138#4 10779138#5 10779138#6 10770689#0 10770275 10769488#3 10777092#0 10777092#1"/>
    </vehicle>
    <vehicle id="15" depart="1150.00">
        <route edges="-10769629#1 -10769629#0 -10768965#0 -10768229#7 -10768229#6 -10768229#5 -10768229#4 -10768229#3 -10768229#2 -10768229#1 86700213#0 86700213#1 86700213#2 86700213#3 86700211#0 86700211#1 86700211#2 86700211#3 86700211#4"/>
    </vehicle>
    <vehicle id="16" depart="1160.00">
        <route edges="10773875#0 10773875#1 128992809 218101027#0 218101027#1 218101027#2 218101027#3 218101815#0 218101815#1 218101031 291271454 218101016 218101011#1 40343758#1 10767050 301725008#0 301725008#1 301725008#2 86700213#3 86700211#0 86700211#1 86700211#2 86700211#3 86700211#4 86700211#5 86700211#6 86700211#7 86700211#8 81164849#0 81164849#1 128992727#0 128992727#1"/>
    </vehicle>
    <vehicle id="17" depart="1170.00">
        <route edges="-10769806#0 10769806#0 10769806#1 10769806#2 -10770618 10778782#3 10778782#4 10778782#5 -10767562#0 -10771463#2 -10771463#1 -10771463#0 10774793#0 288534959#11 288534959#12 288534959#13 288534959#14 288534965#0 288534965#1 41703037#0 41703037#1 41703037#2 41703037#3 41703037#4 41703037#5 41703037#6 41703037#7 86700210#0 86700210#1 86700210#2 86700210#3 86700212 128992728#0 128992728#1 -10775514#0 10769914#0 -10769914#0"/>
    </vehicle>
    <vehicle id="18" depart="1180.00">
        <route edges="-10768631 10767936#2 10774721#1 -10775960#0 -10768229#6 -10768229#5 -10768229#4 -10768229#3 -10768229#2 10770765#0 10770765#1 10770765#2 10770765#3 10770765#4 10770765#5 10770765#6 10772319#0 10772319#1 10772319#2 -10772319#2"/>
    </vehicle>
    <vehicle id="19" depart="1190.00">
        <route edges="86700211#3 86700211#4 -10779131#0 41703037#4 41703037#5 41703037#6 41703037#7 86700210#0 86700210#1 86700210#2 86700210#3 86700212 128992728#0 128992728#1 -10775514#0 10769914#0 10769914#1 10769914#2 10769914#3 10769914#4 10774277#0 -10774277#0"/>
    </vehicle>
    <vehicle id="20" depart="1200.00">
        <route edges="10770275 -10770275 -10770689#0 -10779138#6 -10779138#5 -10779138#4 -10779138#3 -10779138#2 -10779138#1 -10779138#0 158601758#1 128992729 86700213#0 86700213#1 86700213#2 86700213#3 86700211#0 86700211#1 86700211#2 86700211#3 86700211#4 86700211#5 86700211#6 10777275#0 10777275#1 -296360459#13 -296360459#12 -296360459#11 -296360459#10 -296360459#9 -296360459#8 -296360459#7 10775144#1 10775144#2 10775144#3 10775144#4 10775144#5 10775144#6 10775144#7 10775144#8 10775144#9 10775144#10 10775144#11 10775144#12 10775144#13 10775144#14 10775144#15 10775144#16 10775144#17 10775144#18 -10770840#5"/>
    </vehicle>
    <vehicle id="21" depart="1210.00">
        <route edges="10776780 -10776780 10767342#0 -10775761#4 -10775761#3 -10775761#2 -10775761#1 -10775761#0 -10779138#0 158601758#1 128992729 86700213#0 86700213#1 86700213#2 86700213#3 86700211#0 86700211#1 86700211#2 86700211#3 86700211#4 86700211#5 10773762#1"/>
    </vehicle>
    <vehicle id="22" depart="1220.00">
        <route edges="10779509#1 -10769963#0 -10768941#2 -10772673#4 -10772673#3 -10772673#2 -10772673#1 -10772673#0 288534970 41703037#0 41703037#1 41703037#2 41703037#3 41703037#4 41703037#5 41703037#6 41703037#7 86700210#0 86700210#1 86700210#2 86700210#3 86700212 128992728#0 86700219 10779138#0 10779138#1 10779138#2 10779138#3 10779138#4 10779138#5"/>
    </vehicle>
    <vehicle id="25" depart="1250.00">
        <route edges="41703037#3 41703037#4 41703037#5 41703037#6 41703037#7 86700210#0 86700210#1 86700210#2 86700210#3"/>
    </vehicle>
    <vehicle id="27" depart="1270.00">
        <route edges="-10768813#1 -10768813#0 -10775144#19 -10775144#18 -10775144#17 -10775144#16 -10775144#15 -10775144#14 -10775144#13 -10775144#12 -10775144#11 -10775144#10 -10775144#9 -10775144#8 -10775144#7 -10775144#6 -10775144#5 -10775144#4 -10775144#3 -10775144#2 -10775144#1 296360459#7 296360459#8 296360459#9 296360459#10 296360459#11 296360459#12 296360459#13 -10777275#1 41703037#2 41703037#3 41703037#4 41703037#5 10767264 291271456#2 40343749#1 10766473 301725004 218101654#0 218101654#1 218101815#1 218101031 291271454 218101016 218101011#1 40343758#1 10767050 301725008#0"/>
    </vehicle>
    <vehicle id="28" depart="1280.00">
        <route edges="218103101#2 -218103101#0 158601947#1 158601948"/>
    </vehicle>
    <vehicle id="29" depart="1290.00">
        <route edges="10767395#0 -10767395#0 296360459#3"/>
    </vehicle>
    <vehicle id="30" depart="1300.00">
        <route edges="-10774410 -10775761#2 -10775761#1 -10775761#0 -10779138#0 158601758#1 128992729 86700213#0 86700213#1 86700213#2 86700213#3 86700211#0 86700211#1 86700211#2 86700211#3 86700211#4 86700211#5 86700211#6 10777275#0 10777275#1 -296360459#13 -296360459#12 -296360459#11 -296360459#10 -296360459#9 -296360459#8 -296360459#7 10775144#1 10775144#2 10775144#3 10775144#4 10775144#5 10775144#6 10775144#7 10775144#8 10775144#9 10775144#10 10775144#11 10777898 -10772069#1"/>
    </vehicle>
    <vehicle id="31" depart="1310.00">
        <route edges="-10768985#1 -10775761#3 -10775761#2 -10775761#1 -10775761#0 -10779138#0 158601758#1 128992729 86700213#0 86700213#1 86700213#2 86700213#3 86700211#0 86700211#1 86700211#2 86700211#3 86700211#4 86700211#5 86700211#6 86700211#7 86700211#8 81164849#0 81164849#1 128992727#0 128992727#1 128992727#2 128992727#3 10771463#0 10771463#1 10771463#2 10767562#0 -10778782#5 10778782#5"/>
    </vehicle>
    <vehicle id="32" depart="1320.00">
        <route edges="-10775909#1 -10775909#0 -10779138#1 10779138#1"/>
    </vehicle>
    <vehicle id="33" depart="1330.00">
        <route edges="-10772153#1 -10775761#0 -10779138#0 158601758#1 128992729 86700213#0 86700213#1 86700213#2 86700213#3 86700211#0 86700211#1 86700211#2 86700211#3 86700211#4 86700211#5 86700211#6 10777275#0 10777275#1 10777275#2 10774632"/>
    </vehicle>
    <vehicle id="34" depart="1340.00">
        <route edges="218327575#1 -10779146#0 -10775144#16 -10775144#15 -10775144#14 -10775144#13 -10775144#12 -10775144#11 -10775144#10 -10775144#9 -10775144#8 -10775144#7 -10775144#6 -10775144#5 -10775144#4 -10775144#3 -10775144#2 -10775144#1 296360459#7 296360459#8 296360459#9 296360459#10 296360459#11 296360459#12 86700215#0 86700215#1 86700211#8 10772673#0 10772673#1 10772673#2 10772673#3 10772673#4 10768941#2 10769963#0 -10779509#1"/>
    </vehicle>
    <vehicle id="35" depart="1350.00">
        <route edges="-10775515#2 -10775515#1 218101027#1 218101027#2 218101027#3 218101815#0 218101815#1 218101031 291271454 218101016 218101011#1 40343758#1 10767050 301725008#0 301725008#1 301725008#2 86700213#3 86700211#0 86700211#1 86700211#2 86700211#3 86700211#4 86700211#5 86700211#6 10777275#0 10777275#1 -296360459#13 -296360459#12 -296360459#11 -296360459#10 -296360459#9 -296360459#8 -296360459#7 10775144#1 10775144#2 10775144#3 10775144#4 10775144#5 10775144#6 10775144#7 10775144#8 10775144#9 10775144#10 10775144#11 10775144#12 10775144#13 10775144#14 10775144#15 10775144#16"/>
    </vehicle>
    <vehicle id="38" depart="1380.00">
        <route edges="10775757#2 10775757#3 10775757#4 86700211#3 86700211#4 86700211#5 86700211#6 86700211#7 86700211#8 81164849#0 81164849#1 128992727#0 128992727#1 128992727#2 128992727#3 128992727#4 128992727#5 128992727#6 128992727#7 128992727#8 128992727#9 128992727#10 128992727#11"/>
    </vehicle>
    <vehicle id="39" depart="1390.00">
        <route edges="288534949 288534959#7 288534959#8 288534959#9 -288534956 128992727#5 128992727#6 128992727#7 128992727#8 -10771105#1 -10771105#0 10775144#0 -296360459#6 -296360459#5 -296360459#4 -296360459#3 10767395#0 10767395#1"/>
    </vehicle>
    <vehicle id="40" depart="1400.00">
        <route edges="10777092#1 -10777092#1 -10777092#0 -10769488#3 -10770275 -10770689#0 -10779138#6 -10779138#5 -10779138#4 -10779138#3 -10779138#2 10775909#0 10775909#1 -10769914#0 10775514#0 10775514#1 10775514#2 10775514#3 10775514#4 10775514#5 218101020#1 218101020#2 218101024#0 218101024#1 218101024#2 218101656#0 218101656#1 10775515#0 10775515#1"/>
    </vehicle>
    <vehicle id="41" depart="1410.00">
        <route edges="10772050#1 -10772050#1 -10772050#0 -10768229#3 -10768229#2 -10768229#1 86700213#0 86700213#1 86700213#2 86700213#3 86700211#0 86700211#1 86700211#2 86700211#3 86700211#4 86700211#5 86700211#6 10777275#0 10777275#1 -296360459#13 -296360459#12 -296360459#11 -296360459#10 -296360459#9 -296360459#8 -296360459#7 10775144#1 10775144#2 10775144#3 10775144#4 10775144#5 10775144#6 10775144#7 10775144#8 10775144#9 10775144#10 10775144#11 10775144#12 10775144#13 10775144#14 10775144#15 10775144#16 10775144#17 10775144#18 10775144#19 10768813#0 10768813#1 -10768813#1"/>
    </vehicle>
    <vehicle id="42" depart="1420.00">
        <route edges="10779551#1 10777482#0 10777482#1 -10778377#0 -10775514#3 -10775514#2 -10775514#1 -10775514#0 158601758#0 158601758#1 128992729 -10768229#0 86700212 128992728#0 128992728#1"/>
    </vehicle>
    <vehicle id="44" depart="1440.00">
        <route edges="-10774088#1 -10773649 10778782#1 10778782#2 10778782#3 10778782#4 10778782#5 -10767562#0 -10771463#2 -10771463#1 -10771463#0 10774793#0 288534959#11 288534959#12 288534959#13 288534959#14 288534965#0 288534965#1 41703037#0 41703037#1 41703037#2 41703037#3 41703037#4 41703037#5 41703037#6 41703037#7 86700210#0 86700210#1 86700210#2 86700210#3 86700212 128992728#0 86700219 10779138#0 10775761#0 -10772153#0 10772153#0"/>
    </vehicle>
    <vehicle id="46" depart="1460.00">
        <route edges="10768229#6 -10768229#6 -10768229#5 -10768229#4 -10768229#3 -10768229#2 -10768229#1 -10768229#0 86700212 128992728#0 128992728#1 -10775514#0 10769914#0 10769914#1 10769914#2 10769914#3 10769914#4 10774253 -10774252#0"/>
    </vehicle>
    <vehicle id="47" depart="1470.00">
        <route edges="10771352 -10768343#1 10767574 10769067#3 10768235#0 10768235#1 10769202 -10775144#10 -10775144#9 -10775144#8 -10775144#7 -10775144#6 -10775144#5 -10775144#4 -10775144#3 -10775144#2 -10775144#1 296360459#7 296360459#8 296360459#9 296360459#10 296360459#11 296360459#12 296360459#13 -10777275#1 41703037#2 41703037#3 41703037#4 41703037#5 41703037#6 41703037#7 86700210#0 86700210#1 86700210#2 86700210#3 86700212 128992728#0 128992728#1 10775514#1 10775514#2 10775514#3 10775514#4 10776280 -10778469#2 -10772662#2"/>
    </vehicle>
    <vehicle id="48" depart="1480.00">
        <route edges="-10771352 -10771885 10779547#1 10769624#1 -10775144#6 -10775144#5 -10775144#4 -10775144#3 -10775144#2 -10775144#1 296360459#7 296360459#8 296360459#9 296360459#10 296360459#11 296360459#12 296360459#13 -10777275#1 41703037#2 41703037#3 41703037#4 41703037#5 10767264 291271456#2 40343749#1 10766473 10766552 218101656#1 218101656#2 218101027#0"/>
    </vehicle>
    <vehicle id="49" depart="1490.00">
        <route edges="228956271#2 -228956271#2 133634668 -10774793#2 296360459#9 296360459#10 296360459#11 296360459#12 296360459#13 10777275#2 10777275#3 10777275#4 10777275#5 10777275#6 10777275#7 -10777275#7"/>
    </vehicle>
    <vehicle id="50" depart="1500.00">
        <route edges="-10775144#1 10775144#1 10775144#2"/>
    </vehicle>
    <vehicle id="51" depart="1510.00">
        <route edges="10770852#1 -10769963#1 -10769963#0 -10768941#2 -10772673#4 -10772673#3 -10772673#2 -10772673#1 -10772673#0 288534970 41703037#0 41703037#1 41703037#2 41703037#3 41703037#4 41703037#5 10767264 291271456#2 40343749#1 10766473 301725004 218101654#0 218101654#1 218101815#1 218101031 291271454 218101016 218101011#1 40343758#1 10767050"/>
    </vehicle>
    <vehicle id="52" depart="1520.00">
        <route edges="-10768813#2 -10768813#1 -10768813#0 -10775144#19 -10775144#18 -10775144#17 -10775144#16 -10775144#15 -10775144#14 -10775144#13 -10775144#12 -10775144#11 -10775144#10 -10775144#9 -10775144#8 -10775144#7 -10775144#6 -10775144#5 -10775144#4 -10775144#3 -10775144#2 -10775144#1 296360459#7 296360459#8 296360459#9 296360459#10 296360459#11 296360459#12 296360459#13 -10777275#1 41703037#2 41703037#3 10779131#0 -10779131#0"/>
    </vehicle>
    <vehicle id="53" depart="1530.00">
        <route edges="-10778128 -10779138#10 -10779138#9 -10779138#8 -10779138#7 -10779138#6 -10779138#5 -10779138#4 -10779138#3 -10779138#2 -10779138#1 -10779138#0 158601758#1 128992729 86700213#0 86700213#1 86700213#2 86700213#3 86700211#0 86700211#1 86700211#2 86700211#3 86700211#4 86700211#5 86700211#6 86700211#7 86700211#8 81164849#0 81164849#1 128992727#0 128992727#1 128992727#2 128992727#3 10771463#0 10771463#1 10771463#2 10767562#0 -10778782#5 -10778782#4 -10778782#3 -10778782#2 -10778782#1 10773649 -10773649"/>
    </vehicle>
    <vehicle id="54" depart="1540.00">
        <route edges="-10775757#1 10775757#1 10775757#2 10775757#3 10775757#4 86700211#3 86700211#4 86700211#5 86700211#6 10777275#0 10777275#1 -296360459#13 -296360459#12 -296360459#11 -296360459#10 -296360459#9 -296360459#8 -296360459#7 10775144#1 10775144#2 10775144#3 10775144#4 10775144#5 10775144#6 10775144#7 10775144#8 10775144#9 10775689"/>
    </vehicle>
    <vehicle id="55" depart="1550.00">
        <route edges="86700212 128992728#0 86700219 10779138#0 10779138#1 10779138#2 10779138#3 10779138#4 10779138#5 10779138#6 10779138#7 -10769488#1 10775627#0 -10769865#0"/>
    </vehicle>
    <vehicle id="56" depart="1560.00">
        <route edges="-10777482#1 10777482#1 -10778377#0 -10775514#3 -10775514#2 -10775514#1 -10775514#0 158601758#0 158601758#1 128992729 86700213#0 86700213#1 86700213#2 86700213#3 86700211#0 86700211#1 86700211#2 86700211#3 86700211#4 86700211#5 86700211#6 10777275#0 10777275#1 -296360459#13 -296360459#12 -296360459#11 -296360459#10 -296360459#9 -296360459#8 -296360459#7 10775144#1 10775144#2 10775144#3 10775144#4 10775144#5 10775144#6 10775144#7 -10771929#4 -10771929#3"/>
    </vehicle>
    <vehicle id="57" depart="1570.00">
        <route edges="40343758#0 40343758#1 10767050 301725008#0 301725008#1 301725008#2 86700213#3 86700211#0 86700211#1 86700211#2 86700211#3 86700211#4 86700211#5 86700211#6 10777275#0 10777275#1 -296360459#13 -296360459#12 -296360459#11 -296360459#10 -296360459#9 -296360459#8 -296360459#7 10775144#1 10775144#2 10775144#3 10775144#4"/>
    </vehicle>
    <vehicle id="59" depart="1590.00">
        <route edges="10775515#3 -10775515#3 -10775515#2 -10775515#1 218101027#1 218101027#2 218101027#3 218101815#0 218101815#1 218101031 291271454 218101016 218101011#1 40343758#1 10767050 301725008#0 301725008#1 301725008#2 86700213#3 86700211#0 86700211#1 86700211#2 86700211#3 86700211#4 86700211#5 86700211#6 10777275#0 10777275#1 -296360459#13 -296360459#12 -296360459#11 -296360459#10 -296360459#9 -296360459#8 -296360459#7 -296360459#6 -296360459#5 -296360459#4 -296360459#3 -296360459#2 -296360459#1 296360459#1"/>
    </vehicle>
    <vehicle id="60" depart="1600.00">
        <route edges="10775627#0 -10775627#0 10769488#1 -10779138#7 -10779138#6 -10779138#5 -10779138#4 -10779138#3 -10779138#2 10775909#0 10775909#1 10769914#1 -10769914#1"/>
    </vehicle>
    <vehicle id="61" depart="1610.00">
        <route edges="-296360459#9 296360459#9 296360459#10 296360459#11 296360459#12 296360459#13 -10777275#1 41703037#2 41703037#3 41703037#4 41703037#5 41703037#6 41703037#7 86700210#0 10767054#0 301725008#2 86700213#3 10767263"/>
    </vehicle>
    <vehicle id="63" depart="1630.00">
        <route edges="10768631 -10768631 10767936#2 10774721#1 -10775960#0 -10768229#6 -10768229#5 -10768229#4 -10768229#3 -10768229#2 -10768229#1 -10768229#0 86700212 128992728#0 86700219 10779138#0 10779138#1 10779138#2 10779138#3 10779138#4 10779138#5 10779138#6 10779138#7 -10769488#1 -10769488#0"/>
    </vehicle>
    <vehicle id="64" depart="1640.00">
        <route edges="10774808#2 -10774808#2 -10774808#1 -10774808#0 -10776423 10775346#4 10775346#5 10775346#6 10775346#7 10770521#0 -10770520 -10775514#6 218101020#1 218101011#0 218101011#1 40343758#1 10767050 301725008#0 301725008#1 301725008#2 86700213#3 86700211#0 86700211#1 86700211#2 86700211#3 86700211#4 86700211#5 86700211#6 86700211#7 86700211#8 81164849#0 81164849#1 128992727#0 128992727#1 128992727#2 128992727#3 128992727#4 128992727#5 128992727#6 128992727#7 128992727#8 10771105#2 10771105#3 -10768966#1 10768966#1"/>
    </vehicle>
    <vehicle id="66" depart="1660.00">
        <route edges="-10768813#0 -10775144#19 -10775144#18"/>
    </vehicle>
    <vehicle id="67" depart="1670.00">
        <route edges="-10769488#1 10769488#1 -10779138#7 -10779138#6 -10779138#5 -10779138#4 -10779138#3 -10779138#2 -10779138#1 -10779138#0 158601758#1 128992729 86700213#0 86700213#1 86700213#2 86700213#3 86700211#0 86700211#1 86700211#2 86700211#3 86700211#4 86700211#5 86700211#6 86700211#7 86700211#8 81164849#0 81164849#1 128992727#0 128992727#1 128992727#2 128992727#3 10771463#0 10771463#1 10771463#2 10771463#3"/>
    </vehicle>
    <vehicle id="69" depart="1690.00">
        <route edges="-10779635 -10769806#3 -10770618 10778782#3 10778782#4 10778782#5 -10767562#0 -10771463#2 -10771463#1 -10771463#0 128992727#4 128992727#5 128992727#6 128992727#7 128992727#8 -10771105#1 -10771105#0 10775144#0 10775144#1 10775144#2 10775144#3 10775144#4 10775144#5 10775144#6 -10769624#1 -10779547#1 -10779547#0"/>
    </vehicle>
    <vehicle id="70" depart="1700.00">
        <route edges="10773263 10772153#0 -10775761#0 -10779138#0 158601758#1 128992729 86700213#0 86700213#1 86700213#2 86700213#3 86700211#0 86700211#1 86700211#2 86700211#3 86700211#4 86700211#5 86700211#6 86700211#7 86700211#8 81164849#0 81164849#1 128992727#0 128992727#1 128992727#2 128992727#3 10771463#0 10771463#1 10771463#2 10771463#3 10771463#4 10767732#0 10778704"/>
    </vehicle>
    <vehicle id="72" depart="1720.00">
        <route edges="10772662#0 -10772662#0 -10778469#3 -10776280 -10775514#4 -10775514#3 -10775514#2 -10775514#1 -10775514#0 158601758#0 158601758#1 128992729 86700213#0 86700213#1 86700213#2 86700213#3 86700211#0 86700211#1 86700211#2 86700211#3 86700211#4 86700211#5 86700211#6 10777275#0 10777275#1 -296360459#13 -296360459#12 -296360459#11 -296360459#10 -296360459#9 -296360459#8 -296360459#7 10775144#1 10775144#2 10775144#3 10775144#4 10775144#5 10775144#6 10775144#7 10775144#8 10775144#9 10775144#10 10775144#11 10775144#12 10775144#13 10775144#14 10775144#15 10775144#16 10779146#0 10779146#1 -10779146#1"/>
    </vehicle>
    <vehicle id="73" depart="1730.00">
        <route edges="10778469#1 10778469#2 -10776280 -10775514#4 -10775514#3 -10775514#2 -10775514#1 -10775514#0 158601758#0 158601758#1 128992729 10768229#1 10768229#2 10768229#3 10772050#0 10772050#1 10772050#2 10776432#1"/>
    </vehicle>
    <vehicle id="74" depart="1740.00">
        <route edges="-10775514#0 10775514#0 158601756#0 86700217 86697277#3 86697277#4"/>
    </vehicle>
    <vehicle id="76" depart="1760.00">
        <route edges="-10770883 -10772293#2 -10772293#1 -10772293#0 218327575#1"/>
    </vehicle>
    <vehicle id="77" depart="1770.00">
        <route edges="51738140#0 51738140#1 51738140#2 51738140#3 -10775514#6 218101020#1 218101011#0 218101011#1 40343758#1 10767050 301725008#0 301725008#1 301725008#2 86700213#3 86700211#0 86700211#1 86700211#2 -10775757#4 -10775757#3 -10775757#2 -10775757#1 10775757#1"/>
    </vehicle>
    <vehicle id="79" depart="1790.00">
        <route edges="10774793#1 296360459#9 296360459#10 296360459#11 296360459#12 296360459#13 -10777275#1 41703037#2 41703037#3 41703037#4 41703037#5 10767264 291271456#2 40343749#1 10766473 10766552 218101656#1 10775515#0 218101027#1 218101027#2 218101027#3"/>
    </vehicle>
    <vehicle id="80" depart="1800.00">
        <route edges="10770633#1 -10770633#1 -10773762#1 86700211#6 10777275#0 10777275#1 -296360459#13 -296360459#12 -296360459#11 -296360459#10 -296360459#9 10774793#2 10774793#3 -10774793#3"/>
    </vehicle>
    <vehicle id="81" depart="1810.00">
        <route edges="86700215#1 -86700215#1 41703037#1 41703037#2 41703037#3 41703037#4 41703037#5 41703037#6 41703037#7 86700210#0 86700210#1 86700210#2 86700210#3 86700212 128992728#0 86700219 10779138#0 10775761#0 10775761#1 10775761#2 10775761#3 10768985#1"/>
    </vehicle>
    <vehicle id="82" depart="1820.00">
        <route edges="40414679#0 40414679#1 40343757 40343758#0 40343758#1 10767050 301725008#0 301725008#1 301725008#2 86700213#3 86700211#0 86700211#1 86700211#2 86700211#3 86700211#4 86700211#5 86700211#6 10777275#0 10777275#1 -296360459#13 -296360459#12 -296360459#11 -296360459#10 -296360459#9 -296360459#8 -296360459#7 10775144#1 10775144#2 10775144#3 10775144#4 10775144#5 10775144#6 10775144#7"/>
    </vehicle>
    <vehicle id="83" depart="1830.00">
        <route edges="-10770840#1 10770840#1 10770840#2 10770840#3 10770840#4 10770840#5 -10775144#18 -10775144#17 -10775144#16 -10775144#15 -10775144#14 -10775144#13 10775144#13"/>
    </vehicle>
    <vehicle id="84" depart="1840.00">
        <route edges="10779138#1 -10779138#1 -10779138#0 158601758#1 128992729 86700213#0 86700213#1 86700213#2 86700213#3 86700211#0 86700211#1 86700211#2 86700211#3 86700211#4 86700211#5 86700211#6 86700211#7 86700211#8 81164849#0 81164849#1 128992727#0 128992727#1 128992727#2 128992727#3 10771463#0 10771463#1 10771463#2 10767562#0 -10778782#5 -10778782#4 -10778782#3 -10778782#2 -10778782#1 10773649 -10773649"/>
    </vehicle>
    <vehicle id="85" depart="1850.00">
        <route edges="10778440#0 10778440#1 10771929#2 10771929#3 10771929#4 -10775144#7 -10769624#1 -10779547#1 10779547#1"/>
    </vehicle>
    <vehicle id="86" depart="1860.00">
        <route edges="10779509#1 -10769963#0 -10768941#2 -10772673#4 -10772673#3 -10772673#2 -10772673#1 -10772673#0 288534970 41703037#0 41703037#1 41703037#2 41703037#3 41703037#4 41703037#5 41703037#6 41703037#7 86700210#0 86700210#1 86700210#2 86700210#3 10768229#0 10768229#1 10768229#2 10768229#3 10768229#4 10768229#5 -10768229#5"/>
    </vehicle>
    <vehicle id="87" depart="1870.00">
        <route edges="-10777824 -10770765#1 -10770765#0 -10768229#1 86700213#0 86700213#1 86700213#2 86700213#3 10767263 291271456#0 291271456#1 291271456#2 40343749#1 10766473 301725004 218101654#0 218101654#1 218101815#1 218101031 291271454 218101016"/>
    </vehicle>
    <vehicle id="88" depart="1880.00">
        <route edges="10768262 -10770041 -10767732#1 -10767732#0 -10771463#4 -10771463#3 -10771463#2 -10771463#1 -10771463#0 10774793#0 288534959#11 288534959#12 288534959#13 288534959#14 288534965#0 288534965#1 41703037#0 41703037#1 41703037#2 41703037#3 41703037#4 41703037#5 41703037#6 41703037#7 86700210#0 86700210#1 86700210#2 86700210#3 10768229#0 10768229#1 -10768229#1"/>
    </vehicle>
    <vehicle id="90" depart="1900.00">
        <route edges="10772662#2 10778469#2 -10776280 -10775514#4 -10775514#3 -10775514#2 -10775514#1 -10775514#0 158601758#0 158601758#1 128992729 86700213#0 40343747"/>
    </vehicle>
    <vehicle id="92" depart="1920.00">
        <route edges="-10770521#0 10770521#0 -10770520 -10775514#6 218101020#1 218101011#0 218101011#1 40343758#1 10767050 301725008#0 301725008#1 301725008#2 86700213#3 86700211#0 86700211#1 86700211#2 86700211#3 86700211#4 86700211#5 86700211#6 86700211#7 86700211#8 81164849#0 81164849#1 128992727#0 128992727#1 128992727#2 128992727#3 10771463#0 10771463#1 10771463#2 10771463#3 10771463#4 10767732#0 10767732#1 -10767732#1"/>
    </vehicle>
    <vehicle id="93" depart="1930.00">
        <route edges="-10779138#2 -10779138#1 -10779138#0 158601758#1 128992729 86700213#0 86700213#1 86700213#2 86700213#3 86700211#0 86700211#1 86700211#2 86700211#3 86700211#4 86700211#5 86700211#6 86700211#7 86700211#8 81164849#0 81164849#1 128992727#0 128992727#1 128992727#2 128992727#3 128992727#4 128992727#5 128992727#6 128992727#7 128992727#8 128992727#9"/>
    </vehicle>
    <vehicle id="94" depart="1940.00">
        <route edges="10774252#0 -10774253 -10769914#4 -10769914#3 -10769914#2 -10769914#1 -10769914#0 158601758#0 158601758#1 128992729 86700213#0 86700213#1 86700213#2 86700213#3 86700211#0 86700211#1 86700211#2 86700211#3 86700211#4 86700211#5 86700211#6 10777275#0"/>
    </vehicle>
    <vehicle id="95" depart="1950.00">
        <route edges="-10771657 -10775515#2 -10775515#1 218101027#1 218101027#2 218101027#3 218101815#0 218101815#1 218101031 291271454 218101016 218101011#1 40343758#1 10767050 301725008#0 301725008#1 301725008#2 86700213#3 86700211#0 86700211#1 86700211#2 86700211#3 86700211#4 86700211#5 86700211#6 10777275#0 10777275#1 10777275#2 -10777275#2"/>
    </vehicle>
    <vehicle id="96" depart="1960.00">
        <route edges="40414679#1 40343757 40343758#0 40343758#1 10767050 301725008#0 301725008#1 301725008#2 86700213#3 86700211#0 86700211#1 86700211#2 86700211#3 86700211#4 86700211#5 86700211#6 10777275#0 10777275#1 -296360459#13 -296360459#12 -296360459#11 -296360459#10 -296360459#9 -296360459#8 -296360459#7 10775144#1 10775144#2 10775144#3 10775144#4 10775144#5 10775144#6 -10769624#1"/>
    </vehicle>
    <vehicle id="97" depart="1970.00">