<?xml version="1.0" encoding="UTF-8"?>

<!-- generated on Sun Jul  6 10:43:59 2014 by SUMO netconvert Version 0.20.0
<?xml version="1.0" encoding="UTF-8"?>

<configuration xmlns:xsi="http://www.w3.org/2001/XMLSchema-instance" xsi:noNamespaceSchemaLocation="http://sumo-sim.org/xsd/netconvertConfiguration.xsd">

    <input>
        <osm-files value="../sanfrancisco.osm"/>
    </input>

    <output>
        <plain-output-prefix value="sanfrancisco-plain"/>
    </output>

    <projection>
        <proj.utm value="true"/>
    </projection>

    <ramp_guessing>
        <ramps.guess value="true"/>
    </ramp_guessing>

    <edge_removal>
        <remove-edges.by-vclass value="rail_slow,rail_fast,bicycle,pedestrian"/>
        <remove-edges.isolated value="true"/>
    </edge_removal>

    <processing>
        <ignore-errors value="true"/>
        <junctions.join value="true"/>
    </processing>

    <report>
        <log value="netconvert.log"/>
    </report>

</configuration>
-->

<connections version="0.13" xmlns:xsi="http://www.w3.org/2001/XMLSchema-instance" xsi:noNamespaceSchemaLocation="http://sumo-sim.org/xsd/connections_file.xsd">
    <connection from="-133856361#0" to="133856361#0" fromLane="0" toLane="0"/>

    <connection from="-133856361#1" to="-8917377#6" fromLane="0" toLane="0"/>
    <connection from="-133856361#1" to="-133856361#0" fromLane="0" toLane="0"/>
    <connection from="-133856361#1" to="8917377#7" fromLane="0" toLane="0"/>
    <connection from="-133856361#1" to="133856361#1" fromLane="0" toLane="0"/>

    <connection from="-133856361#2" to="-89802424#6" fromLane="0" toLane="0"/>
    <connection from="-133856361#2" to="-133856361#1" fromLane="0" toLane="0"/>
    <connection from="-133856361#2" to="89802424#7" fromLane="0" toLane="0"/>
    <connection from="-133856361#2" to="133856361#2" fromLane="0" toLane="0"/>

    <connection from="-133856361#3" to="-89802405#6" fromLane="0" toLane="0"/>
    <connection from="-133856361#3" to="-133856361#2" fromLane="0" toLane="0"/>
    <connection from="-133856361#3" to="89802405#7" fromLane="0" toLane="0"/>
    <connection from="-133856361#3" to="133856361#3" fromLane="0" toLane="0"/>

    <connection from="-133856361#4" to="-27092233#6" fromLane="0" toLane="0"/>
    <connection from="-133856361#4" to="-133856361#3" fromLane="0" toLane="0"/>
    <connection from="-133856361#4" to="27092233#7" fromLane="0" toLane="0"/>
    <connection from="-133856361#4" to="133856361#4" fromLane="0" toLane="0"/>

    <connection from="-133856361#5" to="-225806045#8" fromLane="0" toLane="0"/>
    <connection from="-133856361#5" to="-133856361#4" fromLane="0" toLane="0"/>
    <connection from="-133856361#5" to="225806045#9" fromLane="0" toLane="1"/>
    <connection from="-133856361#5" to="133856361#5" fromLane="0" toLane="0"/>

    <connection from="-184501639#0" to="184501639#0" fromLane="0" toLane="0"/>

    <connection from="-184501639#1" to="225806045#11" fromLane="0" toLane="0"/>
    <connection from="-184501639#1" to="-184501639#0" fromLane="0" toLane="0"/>
    <connection from="-184501639#1" to="-225806045#10" fromLane="0" toLane="1"/>
    <connection from="-184501639#1" to="184501639#1" fromLane="0" toLane="0"/>

    <connection from="-184501639#2" to="27092233#9" fromLane="0" toLane="0"/>
    <connection from="-184501639#2" to="-184501639#1" fromLane="0" toLane="0"/>
    <connection from="-184501639#2" to="-27092233#8" fromLane="0" toLane="0"/>
    <connection from="-184501639#2" to="184501639#2" fromLane="0" toLane="0"/>

    <connection from="-184501639#3" to="89802405#9" fromLane="0" toLane="0"/>
    <connection from="-184501639#3" to="-184501639#2" fromLane="0" toLane="0"/>
    <connection from="-184501639#3" to="-89802405#8" fromLane="0" toLane="0"/>
    <connection from="-184501639#3" to="184501639#3" fromLane="0" toLane="0"/>

    <connection from="-184501639#4" to="237300276" fromLane="0" toLane="0"/>
    <connection from="-184501639#4" to="-184501639#3" fromLane="0" toLane="0"/>
    <connection from="-184501639#4" to="-89802424#8" fromLane="0" toLane="0"/>
    <connection from="-184501639#4" to="184501639#4" fromLane="0" toLane="0"/>

    <connection from="-184501639#5" to="-184501639#4" fromLane="0" toLane="0"/>
    <connection from="-184501639#5" to="184501639#5" fromLane="0" toLane="0"/>

    <connection from="-217621104#0" to="8918851#2" fromLane="0" toLane="0"/>
    <connection from="-217621104#0" to="-28575463#2" fromLane="0" toLane="0"/>
    <connection from="-217621104#0" to="-8918851#1" fromLane="0" toLane="0"/>
    <connection from="-217621104#0" to="217621104#0" fromLane="0" toLane="0"/>

    <connection from="-217621104#1" to="-217621104#0" fromLane="0" toLane="0"/>
    <connection from="-217621104#1" to="217621104#1" fromLane="0" toLane="0"/>

    <connection from="-217621104#2" to="158628364#12" fromLane="0" toLane="0"/>
    <connection from="-217621104#2" to="-217621104#1" fromLane="0" toLane="0"/>
    <connection from="-217621104#2" to="217621104#2" fromLane="0" toLane="0"/>

    <connection from="-217622184#0" to="-184501639#5" fromLane="0" toLane="0"/>
    <connection from="-217622184#0" to="-8917377#10" fromLane="0" toLane="0"/>
    <connection from="-217622184#0" to="-28950263#1" fromLane="0" toLane="0"/>
    <connection from="-217622184#0" to="217622184#0" fromLane="0" toLane="0"/>

    <connection from="-217622184#1" to="-217622184#0" fromLane="0" toLane="0"/>
    <connection from="-217622184#1" to="217622184#1" fromLane="0" toLane="0"/>

    <connection from="-217622184#2" to="-217622184#1" fromLane="0" toLane="0"/>
    <connection from="-217622184#2" to="217622184#2" fromLane="0" toLane="0"/>

    <connection from="-217622185#0" to="28950272#2" fromLane="0" toLane="0"/>
    <connection from="-217622185#0" to="-286265324#2" fromLane="0" toLane="0"/>
    <connection from="-217622185#0" to="-28950272#1" fromLane="0" toLane="0"/>
    <connection from="-217622185#0" to="217622185#0" fromLane="0" toLane="0"/>

    <connection from="-217622185#1" to="-217622185#0" fromLane="0" toLane="0"/>
    <connection from="-217622185#1" to="217622185#1" fromLane="0" toLane="0"/>

    <connection from="-217622185#2" to="8918509#1" fromLane="0" toLane="0"/>
    <connection from="-217622185#2" to="-217622185#1" fromLane="0" toLane="0"/>
    <connection from="-217622185#2" to="-8918509#0" fromLane="0" toLane="0"/>
    <connection from="-217622185#2" to="217622185#2" fromLane="0" toLane="0"/>

    <connection from="-217622185#3" to="8919397#1" fromLane="0" toLane="0"/>
    <connection from="-217622185#3" to="-217622185#2" fromLane="0" toLane="0"/>
    <connection from="-217622185#3" to="-8919397#0" fromLane="0" toLane="0"/>
    <connection from="-217622185#3" to="217622185#3" fromLane="0" toLane="0"/>

    <connection from="-217622185#4" to="8920018#1" fromLane="0" toLane="0"/>
    <connection from="-217622185#4" to="-217622185#3" fromLane="0" toLane="0"/>
    <connection from="-217622185#4" to="-8920018#0" fromLane="0" toLane="0"/>
    <connection from="-217622185#4" to="217622185#4" fromLane="0" toLane="0"/>

    <connection from="-217622185#5" to="28809027#1" fromLane="0" toLane="0"/>
    <connection from="-217622185#5" to="-217622185#4" fromLane="0" toLane="0"/>
    <connection from="-217622185#5" to="-28809027#0" fromLane="0" toLane="0"/>
    <connection from="-217622185#5" to="217622185#5" fromLane="0" toLane="0"/>

    <connection from="-217622185#6" to="8918664#1" fromLane="0" toLane="0"/>
    <connection from="-217622185#6" to="-217622185#5" fromLane="0" toLane="0"/>
    <connection from="-217622185#6" to="-8918664#0" fromLane="0" toLane="0"/>
    <connection from="-217622185#6" to="217622185#6" fromLane="0" toLane="0"/>

    <connection from="-217622185#7" to="8916448#1" fromLane="0" toLane="0"/>
    <connection from="-217622185#7" to="-217622185#6" fromLane="0" toLane="0"/>
    <connection from="-217622185#7" to="-8916448#0" fromLane="0" toLane="0"/>
    <connection from="-217622185#7" to="217622185#7" fromLane="0" toLane="0"/>

    <connection from="-217622185#8" to="8920538#1" fromLane="0" toLane="0"/>
    <connection from="-217622185#8" to="-217622185#7" fromLane="0" toLane="0"/>
    <connection from="-217622185#8" to="-8920538#0" fromLane="0" toLane="0"/>
    <connection from="-217622185#8" to="217622185#8" fromLane="0" toLane="0"/>

    <connection from="-217622185#9" to="8921354#1" fromLane="0" toLane="0"/>
    <connection from="-217622185#9" to="-217622185#8" fromLane="0" toLane="0"/>
    <connection from="-217622185#9" to="-8921354#0" fromLane="0" toLane="0"/>
    <connection from="-217622185#9" to="217622185#9" fromLane="0" toLane="0"/>

    <connection from="-225806045#0" to="225806045#0" fromLane="1" toLane="1"/>

    <connection from="-225806045#1" to="8916908#5" fromLane="0" toLane="0"/>
    <connection from="-225806045#1" to="-225806045#0" fromLane="0" toLane="0"/>
    <connection from="-225806045#1" to="-225806045#0" fromLane="1" toLane="1"/>
    <connection from="-225806045#1" to="-8916908#4" fromLane="1" toLane="0"/>
    <connection from="-225806045#1" to="225806045#1" fromLane="1" toLane="1"/>

    <connection from="-225806045#10" to="8921182#5" fromLane="0" toLane="0"/>
    <connection from="-225806045#10" to="-225806045#9" fromLane="0" toLane="0"/>
    <connection from="-225806045#10" to="-225806045#9" fromLane="1" toLane="1"/>
    <connection from="-225806045#10" to="-8921182#4" fromLane="1" toLane="0"/>
    <connection from="-225806045#10" to="225806045#10" fromLane="1" toLane="1"/>

    <connection from="-225806045#11" to="-184501639#0" fromLane="0" toLane="0"/>
    <connection from="-225806045#11" to="-225806045#10" fromLane="0" toLane="0"/>
    <connection from="-225806045#11" to="-225806045#10" fromLane="1" toLane="1"/>
    <connection from="-225806045#11" to="184501639#1" fromLane="1" toLane="0"/>
    <connection from="-225806045#11" to="225806045#11" fromLane="1" toLane="1"/>

    <connection from="-225806045#2" to="8917472#5" fromLane="0" toLane="0"/>
    <connection from="-225806045#2" to="-225806045#1" fromLane="0" toLane="0"/>
    <connection from="-225806045#2" to="-225806045#1" fromLane="1" toLane="1"/>
    <connection from="-225806045#2" to="-8917472#4" fromLane="1" toLane="0"/>
    <connection from="-225806045#2" to="225806045#2" fromLane="1" toLane="1"/>

    <connection from="-225806045#3" to="32949491#5" fromLane="0" toLane="0"/>
    <connection from="-225806045#3" to="-225806045#2" fromLane="0" toLane="0"/>
    <connection from="-225806045#3" to="-225806045#2" fromLane="1" toLane="1"/>
    <connection from="-225806045#3" to="-32949491#4" fromLane="1" toLane="0"/>
    <connection from="-225806045#3" to="225806045#3" fromLane="1" toLane="1"/>

    <connection from="-225806045#4" to="-225806045#3" fromLane="0" toLane="0"/>
    <connection from="-225806045#4" to="-225806045#3" fromLane="1" toLane="1"/>
    <connection from="-225806045#4" to="239959634" fromLane="1" toLane="0"/>
    <connection from="-225806045#4" to="225806045#4" fromLane="1" toLane="1"/>

    <connection from="-225806045#5" to="-225806045#4" fromLane="0" toLane="0"/>
    <connection from="-225806045#5" to="-225806045#4" fromLane="1" toLane="1"/>
    <connection from="-225806045#5" to="225806045#5" fromLane="1" toLane="1"/>

    <connection from="-225806045#6" to="8917536#5" fromLane="0" toLane="0"/>
    <connection from="-225806045#6" to="-225806045#5" fromLane="0" toLane="0"/>
    <connection from="-225806045#6" to="-225806045#5" fromLane="1" toLane="1"/>
    <connection from="-225806045#6" to="-8917536#4" fromLane="1" toLane="0"/>
    <connection from="-225806045#6" to="225806045#6" fromLane="1" toLane="1"/>

    <connection from="-225806045#7" to="8916953#5" fromLane="0" toLane="0"/>
    <connection from="-225806045#7" to="-225806045#6" fromLane="0" toLane="0"/>
    <connection from="-225806045#7" to="-225806045#6" fromLane="1" toLane="1"/>
    <connection from="-225806045#7" to="-8916953#4" fromLane="1" toLane="0"/>
    <connection from="-225806045#7" to="225806045#7" fromLane="1" toLane="1"/>

    <connection from="-225806045#8" to="8918934#5" fromLane="0" toLane="0"/>
    <connection from="-225806045#8" to="-225806045#7" fromLane="0" toLane="0"/>
    <connection from="-225806045#8" to="-225806045#7" fromLane="1" toLane="1"/>
    <connection from="-225806045#8" to="-8918934#4" fromLane="1" toLane="0"/>
    <connection from="-225806045#8" to="225806045#8" fromLane="1" toLane="1"/>

    <connection from="-225806045#9" to="133856361#5" fromLane="0" toLane="0"/>
    <connection from="-225806045#9" to="-225806045#8" fromLane="0" toLane="0"/>
    <connection from="-225806045#9" to="-225806045#8" fromLane="1" toLane="1"/>
    <connection from="-225806045#9" to="-133856361#4" fromLane="1" toLane="0"/>
    <connection from="-225806045#9" to="225806045#9" fromLane="1" toLane="1"/>

    <connection from="-225806046#0" to="225806054" fromLane="0" toLane="0"/>
    <connection from="-225806046#0" to="-286265331#10" fromLane="0" toLane="0"/>
    <connection from="-225806046#0" to="-286265331#10" fromLane="1" toLane="1"/>
    <connection from="-225806046#0" to="-8917645#4" fromLane="1" toLane="0"/>
    <connection from="-225806046#0" to="225806046#0" fromLane="1" toLane="1"/>

    <connection from="-225806046#1" to="8918851#7" fromLane="0" toLane="0"/>
    <connection from="-225806046#1" to="-225806046#0" fromLane="0" toLane="0"/>
    <connection from="-225806046#1" to="-225806046#0" fromLane="1" toLane="1"/>
    <connection from="-225806046#1" to="-8918851#6" fromLane="1" toLane="0"/>
    <connection from="-225806046#1" to="225806046#1" fromLane="1" toLane="1"/>

    <connection from="-225806054" to="-286265331#10" fromLane="0" toLane="0"/>
    <connection from="-225806054" to="-8917645#4" fromLane="0" toLane="0"/>
    <connection from="-225806054" to="225806046#0" fromLane="0" toLane="1"/>
    <connection from="-225806054" to="225806054" fromLane="0" toLane="0"/>

    <connection from="-225840353#0" to="225840353#0" fromLane="0" toLane="0"/>

    <connection from="-225840353#1" to="-217622185#9" fromLane="0" toLane="0"/>
    <connection from="-225840353#1" to="-225840353#0" fromLane="0" toLane="0"/>
    <connection from="-225840353#1" to="28575463#0" fromLane="0" toLane="0"/>
    <connection from="-225840353#1" to="225840353#1" fromLane="0" toLane="0"/>

    <connection from="-225840353#2" to="-237300267#8" fromLane="0" toLane="0"/>
    <connection from="-225840353#2" to="-225840353#1" fromLane="0" toLane="0"/>
    <connection from="-225840353#2" to="237300267#9" fromLane="0" toLane="0"/>
    <connection from="-225840353#2" to="225840353#2" fromLane="0" toLane="0"/>

    <connection from="-225840353#3" to="-286265327#9" fromLane="0" toLane="0"/>
    <connection from="-225840353#3" to="-225840353#2" fromLane="0" toLane="0"/>
    <connection from="-225840353#3" to="286265327#10" fromLane="0" toLane="0"/>
    <connection from="-225840353#3" to="225840353#3" fromLane="0" toLane="0"/>

    <connection from="-225840353#4" to="-286265329#9" fromLane="0" toLane="0"/>
    <connection from="-225840353#4" to="-225840353#3" fromLane="0" toLane="0"/>
    <connection from="-225840353#4" to="286265329#10" fromLane="0" toLane="0"/>
    <connection from="-225840353#4" to="225840353#4" fromLane="0" toLane="0"/>

    <connection from="-225840353#5" to="-286265331#9" fromLane="0" toLane="0"/>
    <connection from="-225840353#5" to="-225840353#4" fromLane="0" toLane="0"/>
    <connection from="-225840353#5" to="286265331#10" fromLane="0" toLane="1"/>
    <connection from="-225840353#5" to="225840353#5" fromLane="0" toLane="0"/>

    <connection from="-237300267#0" to="28950272#4" fromLane="0" toLane="0"/>
    <connection from="-237300267#0" to="-286265326" fromLane="0" toLane="0"/>
    <connection from="-237300267#0" to="-28950272#3" fromLane="0" toLane="0"/>
    <connection from="-237300267#0" to="237300267#0" fromLane="0" toLane="0"/>

    <connection from="-237300267#1" to="8918509#2" fromLane="0" toLane="0"/>
    <connection from="-237300267#1" to="-237300267#0" fromLane="0" toLane="0"/>
    <connection from="-237300267#1" to="-8918509#1" fromLane="0" toLane="0"/>
    <connection from="-237300267#1" to="237300267#1" fromLane="0" toLane="0"/>

    <connection from="-237300267#10" to="8917645#2" fromLane="0" toLane="0"/>
    <connection from="-237300267#10" to="-237300267#9" fromLane="0" toLane="0"/>
    <connection from="-237300267#10" to="-8917645#1" fromLane="0" toLane="0"/>
    <connection from="-237300267#10" to="237300267#10" fromLane="0" toLane="0"/>

    <connection from="-237300267#11" to="8918851#4" fromLane="0" toLane="0"/>
    <connection from="-237300267#11" to="-237300267#10" fromLane="0" toLane="0"/>
    <connection from="-237300267#11" to="-8918851#3" fromLane="0" toLane="0"/>
    <connection from="-237300267#11" to="237300267#11" fromLane="0" toLane="0"/>

    <connection from="-237300267#2" to="8919397#2" fromLane="0" toLane="0"/>
    <connection from="-237300267#2" to="-237300267#1" fromLane="0" toLane="0"/>
    <connection from="-237300267#2" to="-8919397#1" fromLane="0" toLane="0"/>
    <connection from="-237300267#2" to="237300267#2" fromLane="0" toLane="0"/>

    <connection from="-237300267#3" to="8920018#2" fromLane="0" toLane="0"/>
    <connection from="-237300267#3" to="-237300267#2" fromLane="0" toLane="0"/>
    <connection from="-237300267#3" to="-8920018#1" fromLane="0" toLane="0"/>
    <connection from="-237300267#3" to="237300267#3" fromLane="0" toLane="0"/>

    <connection from="-237300267#4" to="28809027#2" fromLane="0" toLane="0"/>
    <connection from="-237300267#4" to="-237300267#3" fromLane="0" toLane="0"/>
    <connection from="-237300267#4" to="-28809027#1" fromLane="0" toLane="0"/>
    <connection from="-237300267#4" to="237300267#4" fromLane="0" toLane="0"/>

    <connection from="-237300267#5" to="8918664#2" fromLane="0" toLane="0"/>
    <connection from="-237300267#5" to="-237300267#4" fromLane="0" toLane="0"/>
    <connection from="-237300267#5" to="-8918664#1" fromLane="0" toLane="0"/>
    <connection from="-237300267#5" to="237300267#5" fromLane="0" toLane="0"/>

    <connection from="-237300267#6" to="8916448#2" fromLane="0" toLane="0"/>
    <connection from="-237300267#6" to="-237300267#5" fromLane="0" toLane="0"/>
    <connection from="-237300267#6" to="-8916448#1" fromLane="0" toLane="0"/>
    <connection from="-237300267#6" to="237300267#6" fromLane="0" toLane="0"/>

    <connection from="-237300267#7" to="8920538#2" fromLane="0" toLane="0"/>
    <connection from="-237300267#7" to="-237300267#6" fromLane="0" toLane="0"/>
    <connection from="-237300267#7" to="-8920538#1" fromLane="0" toLane="0"/>
    <connection from="-237300267#7" to="237300267#7" fromLane="0" toLane="0"/>

    <connection from="-237300267#8" to="8921354#2" fromLane="0" toLane="0"/>
    <connection from="-237300267#8" to="-237300267#7" fromLane="0" toLane="0"/>
    <connection from="-237300267#8" to="-8921354#1" fromLane="0" toLane="0"/>
    <connection from="-237300267#8" to="237300267#8" fromLane="0" toLane="0"/>

    <connection from="-237300267#9" to="225840353#2" fromLane="0" toLane="0"/>
    <connection from="-237300267#9" to="-237300267#8" fromLane="0" toLane="0"/>
    <connection from="-237300267#9" to="-225840353#1" fromLane="0" toLane="0"/>
    <connection from="-237300267#9" to="237300267#9" fromLane="0" toLane="0"/>

    <connection from="-237300276" to="-184501639#3" fromLane="0" toLane="0"/>
    <connection from="-237300276" to="-89802424#8" fromLane="0" toLane="0"/>
    <connection from="-237300276" to="184501639#4" fromLane="0" toLane="0"/>
    <connection from="-237300276" to="237300276" fromLane="0" toLane="0"/>

    <connection from="-239959638" to="32949491#4" fromLane="0" toLane="0"/>
    <connection from="-239959638" to="-32949491#3" fromLane="0" toLane="0"/>
    <connection from="-239959638" to="239959638" fromLane="0" toLane="0"/>

    <connection from="-27092233#0" to="27092233#0" fromLane="0" toLane="0"/>

    <connection from="-27092233#1" to="8916908#4" fromLane="0" toLane="0"/>
    <connection from="-27092233#1" to="-27092233#0" fromLane="0" toLane="0"/>
    <connection from="-27092233#1" to="-8916908#3" fromLane="0" toLane="0"/>
    <connection from="-27092233#1" to="27092233#1" fromLane="0" toLane="0"/>

    <connection from="-27092233#2" to="8917472#4" fromLane="0" toLane="0"/>
    <connection from="-27092233#2" to="-27092233#1" fromLane="0" toLane="0"/>
    <connection from="-27092233#2" to="-8917472#3" fromLane="0" toLane="0"/>
    <connection from="-27092233#2" to="27092233#2" fromLane="0" toLane="0"/>

    <connection from="-27092233#3" to="32949491#3" fromLane="0" toLane="0"/>
    <connection from="-27092233#3" to="-27092233#2" fromLane="0" toLane="0"/>
    <connection from="-27092233#3" to="-32949491#2" fromLane="0" toLane="0"/>
    <connection from="-27092233#3" to="27092233#3" fromLane="0" toLane="0"/>

    <connection from="-27092233#4" to="8917536#4" fromLane="0" toLane="0"/>
    <connection from="-27092233#4" to="-27092233#3" fromLane="0" toLane="0"/>
    <connection from="-27092233#4" to="-8917536#3" fromLane="0" toLane="0"/>
    <connection from="-27092233#4" to="27092233#4" fromLane="0" toLane="0"/>

    <connection from="-27092233#5" to="8916953#4" fromLane="0" toLane="0"/>
    <connection from="-27092233#5" to="-27092233#4" fromLane="0" toLane="0"/>
    <connection from="-27092233#5" to="-8916953#3" fromLane="0" toLane="0"/>
    <connection from="-27092233#5" to="27092233#5" fromLane="0" toLane="0"/>

    <connection from="-27092233#6" to="8918934#4" fromLane="0" toLane="0"/>
    <connection from="-27092233#6" to="-27092233#5" fromLane="0" toLane="0"/>
    <connection from="-27092233#6" to="-8918934#3" fromLane="0" toLane="0"/>
    <connection from="-27092233#6" to="27092233#6" fromLane="0" toLane="0"/>

    <connection from="-27092233#7" to="133856361#4" fromLane="0" toLane="0"/>
    <connection from="-27092233#7" to="-27092233#6" fromLane="0" toLane="0"/>
    <connection from="-27092233#7" to="-133856361#3" fromLane="0" toLane="0"/>
    <connection from="-27092233#7" to="27092233#7" fromLane="0" toLane="0"/>

    <connection from="-27092233#8" to="8921182#4" fromLane="0" toLane="0"/>
    <connection from="-27092233#8" to="-27092233#7" fromLane="0" toLane="0"/>
    <connection from="-27092233#8" to="-8921182#3" fromLane="0" toLane="0"/>
    <connection from="-27092233#8" to="27092233#8" fromLane="0" toLane="0"/>

    <connection from="-27092233#9" to="-184501639#1" fromLane="0" toLane="0"/>
    <connection from="-27092233#9" to="-27092233#8" fromLane="0" toLane="0"/>
    <connection from="-27092233#9" to="184501639#2" fromLane="0" toLane="0"/>
    <connection from="-27092233#9" to="27092233#9" fromLane="0" toLane="0"/>

    <connection from="-28575463#0" to="225840353#1" fromLane="0" toLane="0"/>
    <connection from="-28575463#0" to="-217622185#9" fromLane="0" toLane="0"/>
    <connection from="-28575463#0" to="-225840353#0" fromLane="0" toLane="0"/>
    <connection from="-28575463#0" to="28575463#0" fromLane="0" toLane="0"/>

    <connection from="-28575463#1" to="8917645#1" fromLane="0" toLane="0"/>
    <connection from="-28575463#1" to="-28575463#0" fromLane="0" toLane="0"/>
    <connection from="-28575463#1" to="-8917645#0" fromLane="0" toLane="0"/>
    <connection from="-28575463#1" to="28575463#1" fromLane="0" toLane="0"/>

    <connection from="-28575463#2" to="-28575463#1" fromLane="0" toLane="0"/>
    <connection from="-28575463#2" to="28575463#2" fromLane="0" toLane="0"/>

    <connection from="-286265324#0" to="286265339#0" fromLane="0" toLane="0"/>
    <connection from="-286265324#0" to="-217622184#2" fromLane="0" toLane="0"/>
    <connection from="-286265324#0" to="286265342#0" fromLane="0" toLane="1"/>
    <connection from="-286265324#0" to="286265324#0" fromLane="0" toLane="0"/>

    <connection from="-286265324#1" to="-286265324#0" fromLane="0" toLane="0"/>
    <connection from="-286265324#1" to="286265324#1" fromLane="0" toLane="0"/>

    <connection from="-286265324#2" to="-286265324#1" fromLane="0" toLane="0"/>
    <connection from="-286265324#2" to="286265324#2" fromLane="0" toLane="0"/>

    <connection from="-286265326" to="286265338" fromLane="0" toLane="0"/>
    <connection from="-286265326" to="-237300276" fromLane="0" toLane="0"/>
    <connection from="-286265326" to="286265340#0" fromLane="0" toLane="1"/>
    <connection from="-286265326" to="286265326" fromLane="0" toLane="0"/>

    <connection from="-286265327#0" to="286265333" fromLane="0" toLane="0"/>
    <connection from="-286265327#0" to="-89802405#9" fromLane="0" toLane="0"/>
    <connection from="-286265327#0" to="286265336" fromLane="0" toLane="1"/>
    <connection from="-286265327#0" to="286265327#0" fromLane="0" toLane="0"/>

    <connection from="-286265327#1" to="28950272#5" fromLane="0" toLane="0"/>
    <connection from="-286265327#1" to="-286265327#0" fromLane="0" toLane="0"/>
    <connection from="-286265327#1" to="-28950272#4" fromLane="0" toLane="0"/>
    <connection from="-286265327#1" to="286265327#1" fromLane="0" toLane="0"/>

    <connection from="-286265327#10" to="225840353#3" fromLane="0" toLane="0"/>
    <connection from="-286265327#10" to="-286265327#9" fromLane="0" toLane="0"/>
    <connection from="-286265327#10" to="-225840353#2" fromLane="0" toLane="0"/>
    <connection from="-286265327#10" to="286265327#10" fromLane="0" toLane="0"/>

    <connection from="-286265327#11" to="8917645#3" fromLane="0" toLane="0"/>
    <connection from="-286265327#11" to="-286265327#10" fromLane="0" toLane="0"/>
    <connection from="-286265327#11" to="-8917645#2" fromLane="0" toLane="0"/>
    <connection from="-286265327#11" to="286265327#11" fromLane="0" toLane="0"/>

    <connection from="-286265327#12" to="8918851#5" fromLane="0" toLane="0"/>
    <connection from="-286265327#12" to="-286265327#11" fromLane="0" toLane="0"/>
    <connection from="-286265327#12" to="-8918851#4" fromLane="0" toLane="0"/>
    <connection from="-286265327#12" to="286265327#12" fromLane="0" toLane="0"/>

    <connection from="-286265327#2" to="8918509#3" fromLane="0" toLane="0"/>
    <connection from="-286265327#2" to="-286265327#1" fromLane="0" toLane="0"/>
    <connection from="-286265327#2" to="-8918509#2" fromLane="0" toLane="0"/>
    <connection from="-286265327#2" to="286265327#2" fromLane="0" toLane="0"/>

    <connection from="-286265327#3" to="8919397#3" fromLane="0" toLane="0"/>
    <connection from="-286265327#3" to="-286265327#2" fromLane="0" toLane="0"/>
    <connection from="-286265327#3" to="-8919397#2" fromLane="0" toLane="0"/>
    <connection from="-286265327#3" to="286265327#3" fromLane="0" toLane="0"/>

    <connection from="-286265327#4" to="8920018#3" fromLane="0" toLane="0"/>
    <connection from="-286265327#4" to="-286265327#3" fromLane="0" toLane="0"/>
    <connection from="-286265327#4" to="-8920018#2" fromLane="0" toLane="0"/>
    <connection from="-286265327#4" to="286265327#4" fromLane="0" toLane="0"/>

    <connection from="-286265327#5" to="28809027#3" fromLane="0" toLane="0"/>
    <connection from="-286265327#5" to="-286265327#4" fromLane="0" toLane="0"/>
    <connection from="-286265327#5" to="-28809027#2" fromLane="0" toLane="0"/>
    <connection from="-286265327#5" to="286265327#5" fromLane="0" toLane="0"/>

    <connection from="-286265327#6" to="8918664#3" fromLane="0" toLane="0"/>
    <connection from="-286265327#6" to="-286265327#5" fromLane="0" toLane="0"/>
    <connection from="-286265327#6" to="-8918664#2" fromLane="0" toLane="0"/>
    <connection from="-286265327#6" to="286265327#6" fromLane="0" toLane="0"/>

    <connection from="-286265327#7" to="8916448#3" fromLane="0" toLane="0"/>
    <connection from="-286265327#7" to="-286265327#6" fromLane="0" toLane="0"/>
    <connection from="-286265327#7" to="-8916448#2" fromLane="0" toLane="0"/>
    <connection from="-286265327#7" to="286265327#7" fromLane="0" toLane="0"/>

    <connection from="-286265327#8" to="8920538#3" fromLane="0" toLane="0"/>
    <connection from="-286265327#8" to="-286265327#7" fromLane="0" toLane="0"/>
    <connection from="-286265327#8" to="-8920538#2" fromLane="0" toLane="0"/>
    <connection from="-286265327#8" to="286265327#8" fromLane="0" toLane="0"/>

    <connection from="-286265327#9" to="8921354#3" fromLane="0" toLane="0"/>
    <connection from="-286265327#9" to="-286265327#8" fromLane="0" toLane="0"/>
    <connection from="-286265327#9" to="-8921354#2" fromLane="0" toLane="0"/>
    <connection from="-286265327#9" to="286265327#9" fromLane="0" toLane="0"/>

    <connection from="-286265329#0" to="286265335" fromLane="0" toLane="0"/>
    <connection from="-286265329#0" to="-27092233#9" fromLane="0" toLane="0"/>
    <connection from="-286265329#0" to="286265334" fromLane="0" toLane="1"/>
    <connection from="-286265329#0" to="286265329#0" fromLane="0" toLane="0"/>

    <connection from="-286265329#1" to="28950272#6" fromLane="0" toLane="0"/>
    <connection from="-286265329#1" to="-286265329#0" fromLane="0" toLane="0"/>
    <connection from="-286265329#1" to="-28950272#5" fromLane="0" toLane="0"/>
    <connection from="-286265329#1" to="286265329#1" fromLane="0" toLane="0"/>

    <connection from="-286265329#10" to="225840353#4" fromLane="0" toLane="0"/>
    <connection from="-286265329#10" to="-286265329#9" fromLane="0" toLane="0"/>
    <connection from="-286265329#10" to="-225840353#3" fromLane="0" toLane="0"/>
    <connection from="-286265329#10" to="286265329#10" fromLane="0" toLane="0"/>

    <connection from="-286265329#11" to="8917645#4" fromLane="0" toLane="0"/>
    <connection from="-286265329#11" to="-286265329#10" fromLane="0" toLane="0"/>
    <connection from="-286265329#11" to="-8917645#3" fromLane="0" toLane="0"/>
    <connection from="-286265329#11" to="286265329#11" fromLane="0" toLane="0"/>
