<configuration xmlns:xsi="http://www.w3.org/2001/XMLSchema-instance" xsi:noNamespaceSchemaLocation="http://sumo.sf.net/xsd/sumoConfiguration.xsd">

    <input>
        <net-file value="sanfrancisco.net.xml"/>
        <route-files value="sanfrancisco.rou.xml"/>
        <additional-files value="sanfrancisco.poly.xml"/>
<!--        <gui-settings-file value="sumo-gui.settings.xml"/> -->
    </input>

    <time>
        <begin value="0"/>
        <end value="1000"/>
        <step-length value="0.1"/>
    </time>
<remote-port value="50979"/><seed value="0"/><random value="false"/></configuration>