<?xml version="1.0" encoding="UTF-8"?>

<!-- generated on Sun Jul  6 10:43:59 2014 by SUMO netconvert Version 0.20.0
<?xml version="1.0" encoding="UTF-8"?>

<configuration xmlns:xsi="http://www.w3.org/2001/XMLSchema-instance" xsi:noNamespaceSchemaLocation="http://sumo-sim.org/xsd/netconvertConfiguration.xsd">

    <input>
        <osm-files value="../sanfrancisco.osm"/>
    </input>

    <output>
        <plain-output-prefix value="sanfrancisco-plain"/>
    </output>

    <projection>
        <proj.utm value="true"/>
    </projection>

    <ramp_guessing>
        <ramps.guess value="true"/>
    </ramp_guessing>

    <edge_removal>
        <remove-edges.by-vclass value="rail_slow,rail_fast,bicycle,pedestrian"/>
        <remove-edges.isolated value="true"/>
    </edge_removal>

    <processing>
        <ignore-errors value="true"/>
        <junctions.join value="true"/>
    </processing>

    <report>
        <log value="netconvert.log"/>
    </report>

</configuration>
-->

<nodes version="0.13" xmlns:xsi="http://www.w3.org/2001/XMLSchema-instance" xsi:noNamespaceSchemaLocation="http://sumo-sim.org/xsd/nodes_file.xsd">
    <location netOffset="-543214.36,-4176511.46" convBoundary="0.00,0.00,2873.99,3361.49" origBoundary="-122.509389,37.734800,-122.476776,37.765065" projParameter="+proj=utm +zone=10 +ellps=WGS84 +datum=WGS84 +units=m +no_defs"/>

    <node id="1583149311" x="175.44" y="2827.96" type="priority"/>
    <node id="1583149322" x="156.40" y="2830.38" type="priority"/>
    <node id="1583149363" x="1248.84" y="2884.38" type="priority"/>
    <node id="1583149376" x="1208.87" y="2882.32" type="priority"/>
    <node id="1583149387" x="1145.56" y="2889.06" type="priority"/>
    <node id="1583149389" x="1214.73" y="2893.27" type="priority"/>
    <node id="1583149392" x="1184.08" y="2891.40" type="priority"/>
    <node id="1583149395" x="1161.09" y="2889.99" type="priority"/>
    <node id="1583149398" x="1254.81" y="2895.71" type="priority"/>
    <node id="1583149403" x="1239.89" y="2894.80" type="priority"/>
    <node id="1583149433" x="1153.96" y="2900.58" type="priority"/>
    <node id="1583149442" x="1247.55" y="2905.72" type="priority"/>
    <node id="1583149455" x="1207.56" y="2903.91" type="priority"/>
    <node id="1583149462" x="1193.83" y="2903.06" type="priority"/>
    <node id="1707906053" x="2843.76" y="2994.53" type="unregulated"/>
    <node id="1707906069" x="2843.96" y="2991.21" type="unregulated"/>
    <node id="1707906077" x="1195.14" y="2881.52" type="priority"/>
    <node id="1707906099" x="1155.25" y="2879.21" type="priority"/>
    <node id="1707910707" x="1811.78" y="2950.77" type="priority"/>
    <node id="1707910724" x="1808.00" y="3013.66" type="unregulated"/>
    <node id="1707910731" x="1788.50" y="2929.97" type="priority"/>
    <node id="2269180925" x="123.62" y="2826.52" type="priority"/>
    <node id="2269180939" x="115.66" y="2836.61" type="priority"/>
    <node id="2269180967" x="116.91" y="2816.16" type="priority"/>
    <node id="2269180969" x="106.50" y="2825.47" type="priority"/>
    <node id="2269198720" x="1214.81" y="2891.41" type="priority"/>
    <node id="2269198723" x="1239.97" y="2892.97" type="priority"/>
    <node id="2269198725" x="1184.00" y="2893.05" type="priority"/>
    <node id="2269198728" x="1214.66" y="2894.90" type="priority"/>
    <node id="2269198731" x="106.37" y="2827.33" type="priority"/>
    <node id="2269198733" x="1254.92" y="2893.89" type="priority"/>
    <node id="2269198735" x="106.62" y="2823.76" type="priority"/>
    <node id="2269198738" x="1184.17" y="2889.56" type="priority"/>
    <node id="2269198740" x="1239.81" y="2896.44" type="priority"/>
    <node id="2269198742" x="1161.21" y="2888.16" type="priority"/>
    <node id="2269198743" x="1254.70" y="2897.37" type="priority"/>
    <node id="2269198745" x="1160.98" y="2891.65" type="priority"/>
    <node id="2269198747" x="123.63" y="2824.80" type="priority"/>
    <node id="2269198749" x="1145.70" y="2887.21" type="priority"/>
    <node id="2269198753" x="123.49" y="2828.37" type="priority"/>
    <node id="2269198755" x="1145.45" y="2890.70" type="priority"/>
    <node id="2477311941" x="1787.62" y="2097.68" type="priority"/>
    <node id="2477311942" x="1860.43" y="2176.45" type="priority"/>
    <node id="2477311946" x="1844.34" y="2101.06" type="priority"/>
    <node id="258912605" x="751.13" y="3278.01" type="priority"/>
    <node id="258912687" x="278.48" y="3248.81" type="priority"/>
    <node id="258916755" x="1195.64" y="3099.36" type="unregulated"/>
    <node id="258916776" x="1271.28" y="1858.15" type="unregulated"/>
    <node id="2630856848" x="741.89" y="33.56" type="priority"/>
    <node id="2630856883" x="567.01" y="61.06" type="priority"/>
    <node id="2633060717" x="1847.44" y="2175.66" type="priority"/>
    <node id="297249139" x="2843.19" y="2371.28" type="priority"/>
    <node id="313883645" x="10.61" y="2819.51" type="priority"/>
    <node id="313883647" x="7.12" y="2808.79" type="priority"/>
    <node id="318303109" x="1302.50" y="2811.81" type="priority"/>
    <node id="65285008" x="1181.92" y="3098.52" type="unregulated"/>
    <node id="65287789" x="2166.76" y="261.64" type="priority"/>
    <node id="65287834" x="1688.74" y="345.14" type="priority"/>
    <node id="65287885" x="846.52" y="171.56" type="traffic_light" tl="65287885"/>
    <node id="65288285" x="2526.01" y="2142.39" type="priority"/>
    <node id="65288298" x="2054.36" y="2113.78" type="priority"/>
    <node id="65288302" x="1960.06" y="2108.06" type="priority"/>
    <node id="65288304" x="1864.69" y="2102.28" type="priority"/>
    <node id="65288306" x="1771.33" y="2096.63" type="priority"/>
    <node id="65288308" x="1677.00" y="2090.92" type="priority"/>
    <node id="65288311" x="1582.55" y="2085.19" type="priority"/>
    <node id="65288315" x="1487.37" y="2079.42" type="priority"/>
    <node id="65288317" x="1392.77" y="2073.71" type="priority"/>
    <node id="65288319" x="1298.62" y="2067.99" type="priority"/>
    <node id="65288322" x="1204.59" y="2062.31" type="priority"/>
    <node id="65288324" x="1110.13" y="2056.59" type="priority"/>
    <node id="65288329" x="1016.00" y="2050.90" type="priority"/>
    <node id="65288332" x="921.78" y="2045.20" type="priority"/>
    <node id="65288334" x="827.22" y="2039.48" type="priority"/>
    <node id="65288336" x="732.67" y="2033.76" type="priority"/>
    <node id="65288338" x="638.17" y="2028.04" type="priority"/>
    <node id="65288343" x="544.16" y="2022.36" type="priority"/>
    <node id="65288345" x="450.46" y="2016.70" type="priority"/>
    <node id="65288347" x="354.01" y="2010.87" type="priority"/>
    <node id="65288349" x="260.10" y="2005.19" type="priority"/>
    <node id="65288350" x="166.92" y="1999.57" type="priority"/>
    <node id="65288353" x="88.32" y="1994.82" type="priority"/>
    <node id="65289501" x="1257.60" y="1857.31" type="unregulated"/>
    <node id="65293995" x="2873.99" y="2579.85" type="traffic_light" tl="65293995"/>
    <node id="65294014" x="2029.23" y="2527.93" type="priority"/>
    <node id="65294017" x="1934.86" y="2522.14" type="priority"/>
    <node id="65294031" x="1840.09" y="2516.32" type="priority"/>
    <node id="65294035" x="1745.52" y="2510.51" type="priority"/>
    <node id="65294038" x="1651.87" y="2504.76" type="priority"/>
    <node id="65294046" x="1557.31" y="2498.97" type="priority"/>
    <node id="65294048" x="1462.31" y="2493.16" type="priority"/>
    <node id="65294051" x="1367.40" y="2487.31" type="priority"/>
    <node id="65294056" x="1273.41" y="2481.55" type="priority"/>
    <node id="65294061" x="1179.61" y="2475.80" type="priority"/>
    <node id="65294063" x="1085.05" y="2470.01" type="priority"/>
    <node id="65294065" x="990.80" y="2464.23" type="priority"/>
    <node id="65294067" x="895.74" y="2458.48" type="priority"/>
    <node id="65294070" x="802.05" y="2452.66" type="priority"/>
    <node id="65294072" x="707.94" y="2446.90" type="priority"/>
    <node id="65294075" x="613.18" y="2441.09" type="priority"/>
    <node id="65294078" x="519.11" y="2435.33" type="priority"/>
    <node id="65294080" x="425.38" y="2429.60" type="priority"/>
    <node id="65294084" x="328.81" y="2423.68" type="priority"/>
    <node id="65294088" x="235.01" y="2417.94" type="priority"/>
    <node id="65294090" x="141.65" y="2412.24" type="priority"/>
    <node id="65294093" x="43.64" y="2406.24" type="priority"/>
    <node id="65295218" x="230.27" y="964.87" type="priority"/>
    <node id="65296079" x="1142.14" y="3096.07" type="priority"/>
    <node id="65296083" x="1154.62" y="2889.60" type="priority"/>
    <node id="65296086" x="1165.95" y="2682.26" type="priority"/>
    <node id="65296088" x="1192.06" y="2269.73" type="priority"/>
    <node id="65296110" x="1329.18" y="0.00" type="priority"/>
    <node id="65296994" x="562.74" y="3274.35" type="priority"/>
    <node id="65296998" x="587.81" y="2855.03" type="priority"/>
    <node id="65297003" x="600.47" y="2647.63" type="priority"/>
    <node id="65297004" x="625.53" y="2234.96" type="priority"/>
    <node id="65297169" x="1294.03" y="2898.11" type="priority"/>
    <node id="65299663" x="1423.75" y="3113.46" type="priority"/>
    <node id="65299668" x="1437.03" y="2906.88" type="priority"/>
    <node id="65299671" x="1449.20" y="2699.83" type="priority"/>
    <node id="65299673" x="1474.44" y="2286.30" type="priority"/>
    <node id="65299698" x="1586.63" y="424.35" type="priority"/>
    <node id="65304386" x="1978.65" y="3361.49" type="priority"/>
    <node id="65304390" x="1884.17" y="3355.04" type="priority"/>
    <node id="65304394" x="1788.77" y="3349.13" type="priority"/>
    <node id="65304399" x="1698.30" y="3343.31" type="priority"/>
    <node id="65304416" x="1601.31" y="3337.52" type="priority"/>
    <node id="65304422" x="1506.48" y="3331.95" type="priority"/>
    <node id="65304435" x="1316.24" y="3321.10" type="priority"/>
    <node id="65304454" x="1033.82" y="3304.44" type="priority"/>
    <node id="65304460" x="940.02" y="3297.71" type="priority"/>
    <node id="65304469" x="845.42" y="3291.71" type="priority"/>
    <node id="65304484" x="656.07" y="3280.50" type="priority"/>
    <node id="65304496" x="468.57" y="3268.47" type="priority"/>
    <node id="65304503" x="374.79" y="3262.92" type="priority"/>
    <node id="65304514" x="184.37" y="3251.06" type="priority"/>
    <node id="65304523" x="90.67" y="3244.69" type="priority"/>
    <node id="65306583" x="2004.12" y="2941.50" type="priority"/>
    <node id="65306585" x="2015.51" y="2734.48" type="priority"/>
    <node id="65306587" x="2041.72" y="2321.95" type="priority"/>
    <node id="65307186" x="1626.75" y="2918.43" type="priority"/>
    <node id="65307188" x="1638.36" y="2711.16" type="priority"/>
    <node id="65307191" x="1664.39" y="2298.75" type="priority"/>
    <node id="65307210" x="1777.50" y="436.03" type="priority"/>
    <node id="65309754" x="303.43" y="2837.69" type="priority"/>
    <node id="65309756" x="316.21" y="2630.28" type="priority"/>
    <node id="65309759" x="341.39" y="2217.55" type="priority"/>
    <node id="65309767" x="391.92" y="1389.37" type="priority"/>
    <node id="65316043" x="2843.86" y="2992.88" type="traffic_light" tl="65316043"/>
    <node id="65316048" x="2862.29" y="2786.08" type="traffic_light" tl="65316048"/>
    <node id="65316676" x="1909.69" y="2935.72" type="priority"/>
    <node id="65316679" x="1814.78" y="2929.92" type="priority"/>
    <node id="65316685" x="1720.21" y="2924.15" type="priority"/>
    <node id="65316687" x="1532.06" y="2912.65" type="priority"/>
    <node id="65316689" x="1342.01" y="2901.04" type="priority"/>
    <node id="65316690" x="1248.18" y="2895.31" type="priority"/>
    <node id="65316691" x="1059.95" y="2883.82" type="priority"/>
    <node id="65316693" x="965.60" y="2878.06" type="priority"/>
    <node id="65316694" x="870.36" y="2872.09" type="priority"/>
    <node id="65316695" x="776.84" y="2866.55" type="priority"/>
    <node id="65316696" x="682.30" y="2860.78" type="priority"/>
    <node id="65316698" x="493.99" y="2849.30" type="priority"/>
    <node id="65316702" x="400.25" y="2843.59" type="priority"/>
    <node id="65316704" x="209.85" y="2831.88" type="priority"/>
    <node id="65316706" x="116.31" y="2826.07" type="priority"/>
    <node id="65316711" x="0.00" y="2818.85" type="priority"/>
    <node id="65318522" x="1921.58" y="2728.47" type="priority"/>
    <node id="65318524" x="1947.40" y="2316.15" type="priority"/>
    <node id="65318546" x="2048.21" y="659.85" type="priority"/>
    <node id="65320125" x="1732.88" y="2716.87" type="priority"/>
    <node id="65320127" x="1758.26" y="2304.52" type="priority"/>
    <node id="65320154" x="1859.70" y="318.27" type="priority"/>
    <node id="65320529" x="33.78" y="2613.03" type="priority"/>
    <node id="65320531" x="65.38" y="2200.64" type="priority"/>
    <node id="65321240" x="1122.72" y="1849.08" type="priority"/>
    <node id="65321242" x="1028.64" y="1843.35" type="priority"/>
    <node id="65321244" x="934.25" y="1837.60" type="priority"/>
    <node id="65321257" x="272.74" y="1797.31" type="priority"/>
    <node id="65322149" x="222.45" y="2624.56" type="priority"/>
    <node id="65322152" x="247.54" y="2211.80" type="priority"/>
    <node id="65324762" x="1852.74" y="2310.33" type="priority"/>
    <node id="65324764" x="1569.88" y="2292.94" type="priority"/>
    <node id="65324767" x="1380.04" y="2281.27" type="priority"/>
    <node id="65324769" x="1285.97" y="2275.51" type="priority"/>
    <node id="65324772" x="1097.55" y="2263.93" type="priority"/>
    <node id="65324773" x="1003.36" y="2258.15" type="priority"/>
    <node id="65324774" x="909.33" y="2252.38" type="priority"/>
    <node id="65324775" x="814.60" y="2246.57" type="priority"/>
    <node id="65324777" x="719.91" y="2240.76" type="priority"/>
    <node id="65324778" x="531.62" y="2229.21" type="priority"/>
    <node id="65324780" x="437.90" y="2223.46" type="priority"/>
    <node id="65324782" x="154.27" y="2206.08" type="priority"/>
    <node id="65328472" x="1827.45" y="2722.65" type="priority"/>
    <node id="65328474" x="1903.15" y="1481.63" type="priority"/>
    <node id="65329560" x="1071.54" y="2676.73" type="priority"/>
    <node id="65330004" x="695.31" y="2653.42" type="priority"/>
    <node id="65330018" x="833.58" y="9.90" type="priority"/>
    <node id="65331021" x="129.00" y="2618.84" type="priority"/>
    <node id="65333147" x="1544.20" y="2705.38" type="priority"/>
    <node id="65340959" x="1494.34" y="418.70" type="priority"/>
    <node id="65340970" x="925.93" y="384.34" type="priority"/>
    <node id="65341537" x="977.51" y="2670.71" type="priority"/>
    <node id="65342735" x="789.47" y="2659.17" type="priority"/>
    <node id="65350548" x="883.27" y="2665.00" type="priority"/>
    <node id="65355429" x="1235.59" y="3101.80" type="priority"/>
    <node id="65357343" x="506.58" y="2641.89" type="priority"/>
    <node id="65357346" x="660.57" y="75.38" type="priority"/>
    <node id="65358541" x="1424.40" y="5.92" type="priority"/>
    <node id="65364774" x="1354.73" y="2693.72" type="priority"/>
    <node id="65366843" x="412.84" y="2636.17" type="priority"/>
    <node id="65375019" x="1260.82" y="2687.99" type="priority"/>
    <node id="cluster_1707910708_1707910728" x="1826.80" y="2930.57" type="priority"/>
    <node id="cluster_2381817268_258916761_65288321" x="1251.70" y="2065.16" type="traffic_light" tl="cluster_2381817268_258916761_65288321"/>
    <node id="cluster_2381817271_258916786_65289478" x="1226.50" y="2478.68" type="traffic_light" tl="cluster_2381817271_258916786_65289478"/>
    <node id="cluster_2381817274_258916758_65289443" x="1201.39" y="2892.46" type="traffic_light" tl="cluster_2381817274_258916758_65289443"/>
    <node id="cluster_258916773_65289471" x="1214.00" y="2685.12" type="priority"/>
    <node id="cluster_258916801_65289489" x="1239.15" y="2272.62" type="priority"/>
</nodes>
