<?xml version="1.0" encoding="UTF-8"?>

<!-- generated on Thu Nov 21 17:51:36 2013 by SUMO netconvert Version 0.16.0
<?xml version="1.0" encoding="UTF-8"?>

<configuration xmlns:xsi="http://www.w3.org/2001/XMLSchema-instance" xsi:noNamespaceSchemaLocation="http://sumo.sf.net/xsd/netconvertConfiguration.xsd">

    <input>
        <node-files value="sumotest.nod.xml"/>
        <edge-files value="sumotest.edg.xml"/>
    </input>

    <output>
        <output-file value="sumotest.net.xml"/>
    </output>

</configuration>
-->

<net version="0.13" xmlns:xsi="http://www.w3.org/2001/XMLSchema-instance" xsi:noNamespaceSchemaLocation="http://sumo.sf.net/xsd/net_file.xsd">

    <location netOffset="0.00,2000.00" convBoundary="0.00,0.00,2500.00,2000.00" origBoundary="0.00,-2000.00,2500.00,0.00" projParameter="!"/>

    <edge id=":10_0" function="internal">
        <lane id=":10_0_0" index="0" speed="14.00" length="5.00" shape="1491.95,1995.05 1493.31,1994.86 1494.28,1994.27 1494.86,1993.31 1495.05,1991.95"/>
    </edge>
    <edge id=":10_1" function="internal">
        <lane id=":10_1_0" index="0" speed="14.00" length="7.85" shape="1491.95,1995.05 1494.75,1994.86 1496.75,1994.27 1497.95,1993.31 1498.35,1991.95"/>
    </edge>
    <edge id=":10_2" function="internal">
        <lane id=":10_2_0" index="0" speed="14.00" length="9.50" shape="1491.95,1995.05 1501.45,1995.05"/>
    </edge>
    <edge id=":10_3" function="internal">
        <lane id=":10_3_0" index="0" speed="14.00" length="9.50" shape="1491.95,1998.35 1501.45,1998.35"/>
    </edge>
    <edge id=":11_0" function="internal">
        <lane id=":11_0_0" index="0" speed="14.00" length="10.23" shape="1495.05,1001.45 1495.57,998.55 1496.70,996.70 1497.83,994.85 1498.35,991.95"/>
    </edge>
    <edge id=":11_1" function="internal">
        <lane id=":11_1_0" index="0" speed="14.00" length="5.00" shape="1498.35,1001.45 1498.54,1000.09 1499.12,999.12 1500.09,998.54 1501.45,998.35"/>
    </edge>
    <edge id=":11_2" function="internal">
        <lane id=":11_2_0" index="0" speed="14.00" length="5.00" shape="1491.95,995.05 1493.31,994.86 1494.28,994.27 1494.86,993.31 1495.05,991.95"/>
    </edge>
    <edge id=":11_3" function="internal">
        <lane id=":11_3_0" index="0" speed="14.00" length="10.23" shape="1491.95,998.35 1494.85,997.83 1496.70,996.70 1498.55,995.57 1501.45,995.05"/>
    </edge>
    <edge id=":12_0" function="internal">
        <lane id=":12_0_0" index="0" speed="14.00" length="3.18" shape="1495.05,1.45 1495.45,-1.35 1495.63,-1.65"/>
    </edge>
    <edge id=":12_4" function="internal">
        <lane id=":12_4_0" index="0" speed="14.00" length="7.14" shape="1495.63,-1.65 1496.65,-3.35 1498.65,-4.55 1501.45,-4.95"/>
    </edge>
    <edge id=":12_1" function="internal">
        <lane id=":12_1_0" index="0" speed="14.00" length="5.00" shape="1498.35,1.45 1498.54,0.09 1499.12,-0.87 1500.09,-1.46 1501.45,-1.65"/>
    </edge>
    <edge id=":12_2" function="internal">
        <lane id=":12_2_0" index="0" speed="14.00" length="9.50" shape="1491.95,-4.95 1501.45,-4.95"/>
    </edge>
    <edge id=":12_3" function="internal">
        <lane id=":12_3_0" index="0" speed="14.00" length="9.50" shape="1491.95,-1.65 1501.45,-1.65"/>
    </edge>
    <edge id=":13_0" function="internal">
        <lane id=":13_0_0" index="0" speed="14.00" length="5.00" shape="1991.95,1995.05 1993.31,1994.86 1994.28,1994.27 1994.86,1993.31 1995.05,1991.95"/>
    </edge>
    <edge id=":13_1" function="internal">
        <lane id=":13_1_0" index="0" speed="14.00" length="7.85" shape="1991.95,1995.05 1994.75,1994.86 1996.75,1994.27 1997.95,1993.31 1998.35,1991.95"/>
    </edge>
    <edge id=":13_2" function="internal">
        <lane id=":13_2_0" index="0" speed="14.00" length="9.50" shape="1991.95,1995.05 2001.45,1995.05"/>
    </edge>
    <edge id=":13_3" function="internal">
        <lane id=":13_3_0" index="0" speed="14.00" length="9.50" shape="1991.95,1998.35 2001.45,1998.35"/>
    </edge>
    <edge id=":14_0" function="internal">
        <lane id=":14_0_0" index="0" speed="14.00" length="10.23" shape="1995.05,1001.45 1995.57,998.55 1996.70,996.70 1997.83,994.85 1998.35,991.95"/>
    </edge>
    <edge id=":14_1" function="internal">
        <lane id=":14_1_0" index="0" speed="14.00" length="5.00" shape="1998.35,1001.45 1998.54,1000.09 1999.12,999.12 2000.09,998.54 2001.45,998.35"/>
    </edge>
    <edge id=":14_2" function="internal">
        <lane id=":14_2_0" index="0" speed="14.00" length="5.00" shape="1991.95,995.05 1993.31,994.86 1994.28,994.27 1994.86,993.31 1995.05,991.95"/>
    </edge>
    <edge id=":14_3" function="internal">
        <lane id=":14_3_0" index="0" speed="14.00" length="10.23" shape="1991.95,998.35 1994.85,997.83 1996.70,996.70 1998.55,995.57 2001.45,995.05"/>
    </edge>
    <edge id=":15_0" function="internal">
        <lane id=":15_0_0" index="0" speed="14.00" length="3.18" shape="1995.05,1.45 1995.45,-1.35 1995.63,-1.65"/>
    </edge>
    <edge id=":15_4" function="internal">
        <lane id=":15_4_0" index="0" speed="14.00" length="7.14" shape="1995.63,-1.65 1996.65,-3.35 1998.65,-4.55 2001.45,-4.95"/>
    </edge>
    <edge id=":15_1" function="internal">
        <lane id=":15_1_0" index="0" speed="14.00" length="5.00" shape="1998.35,1.45 1998.54,0.09 1999.12,-0.87 2000.09,-1.46 2001.45,-1.65"/>
    </edge>
    <edge id=":15_2" function="internal">
        <lane id=":15_2_0" index="0" speed="14.00" length="9.50" shape="1991.95,-4.95 2001.45,-4.95"/>
    </edge>
    <edge id=":15_3" function="internal">
        <lane id=":15_3_0" index="0" speed="14.00" length="9.50" shape="1991.95,-1.65 2001.45,-1.65"/>
    </edge>
    <edge id=":16_0" function="internal">
        <lane id=":16_0_0" index="0" speed="14.00" length="2.58" shape="2493.45,1995.05 2494.15,1994.95 2494.65,1994.65 2494.95,1994.15 2495.05,1993.45"/>
    </edge>
    <edge id=":16_1" function="internal">
        <lane id=":16_1_0" index="0" speed="14.00" length="7.90" shape="2493.45,1998.35 2495.59,1998.04 2497.12,1997.12 2498.04,1995.59 2498.35,1993.45"/>
    </edge>
    <edge id=":17_0" function="internal">
        <lane id=":17_0_0" index="0" speed="14.00" length="9.50" shape="2495.05,1001.45 2495.05,991.95"/>
    </edge>
    <edge id=":17_1" function="internal">
        <lane id=":17_1_0" index="0" speed="14.00" length="9.50" shape="2498.35,1001.45 2498.35,991.95"/>
    </edge>
    <edge id=":17_2" function="internal">
        <lane id=":17_2_0" index="0" speed="14.00" length="5.00" shape="2491.95,995.05 2493.31,994.86 2494.28,994.27 2494.86,993.31 2495.05,991.95"/>
    </edge>
    <edge id=":17_3" function="internal">
        <lane id=":17_3_0" index="0" speed="14.00" length="10.32" shape="2491.95,998.35 2494.75,997.95 2496.75,996.75 2497.95,994.75 2498.35,991.95"/>
    </edge>
    <edge id=":2_0" function="internal">
        <lane id=":2_0_0" index="0" speed="14.00" length="9.50" shape="-4.95,1001.45 -4.95,991.95"/>
    </edge>
    <edge id=":2_1" function="internal">
        <lane id=":2_1_0" index="0" speed="14.00" length="9.50" shape="-1.65,1001.45 -1.65,991.95"/>
    </edge>
    <edge id=":2_2" function="internal">
        <lane id=":2_2_0" index="0" speed="14.00" length="7.85" shape="-1.65,1001.45 -1.46,998.65 -0.87,996.65 0.09,995.45 1.45,995.05"/>
    </edge>
    <edge id=":2_3" function="internal">
        <lane id=":2_3_0" index="0" speed="14.00" length="5.00" shape="-1.65,1001.45 -1.46,1000.09 -0.87,999.12 0.09,998.54 1.45,998.35"/>
    </edge>
    <edge id=":3_0" function="internal">
        <lane id=":3_0_0" index="0" speed="14.00" length="7.90" shape="-4.95,-0.05 -4.64,-2.19 -3.72,-3.72 -2.19,-4.64 -0.05,-4.95"/>
    </edge>
    <edge id=":3_1" function="internal">
        <lane id=":3_1_0" index="0" speed="14.00" length="2.58" shape="-1.65,-0.05 -1.55,-0.75 -1.25,-1.25 -0.75,-1.55 -0.05,-1.65"/>
    </edge>
    <edge id=":4_0" function="internal">
        <lane id=":4_0_0" index="0" speed="14.00" length="5.00" shape="491.95,1995.05 493.31,1994.86 494.27,1994.27 494.86,1993.31 495.05,1991.95"/>
    </edge>
    <edge id=":4_1" function="internal">
        <lane id=":4_1_0" index="0" speed="14.00" length="7.85" shape="491.95,1995.05 494.75,1994.86 496.75,1994.27 497.95,1993.31 498.35,1991.95"/>
    </edge>
    <edge id=":4_2" function="internal">
        <lane id=":4_2_0" index="0" speed="14.00" length="9.50" shape="491.95,1995.05 501.45,1995.05"/>
    </edge>
    <edge id=":4_3" function="internal">
        <lane id=":4_3_0" index="0" speed="14.00" length="9.50" shape="491.95,1998.35 501.45,1998.35"/>
    </edge>
    <edge id=":5_0" function="internal">
        <lane id=":5_0_0" index="0" speed="14.00" length="10.23" shape="495.05,1001.45 495.57,998.55 496.70,996.70 497.83,994.85 498.35,991.95"/>
    </edge>
    <edge id=":5_1" function="internal">
        <lane id=":5_1_0" index="0" speed="14.00" length="5.00" shape="498.35,1001.45 498.54,1000.09 499.13,999.12 500.09,998.54 501.45,998.35"/>
    </edge>
    <edge id=":5_2" function="internal">
        <lane id=":5_2_0" index="0" speed="14.00" length="5.00" shape="491.95,995.05 493.31,994.86 494.27,994.27 494.86,993.31 495.05,991.95"/>
    </edge>
    <edge id=":5_3" function="internal">
        <lane id=":5_3_0" index="0" speed="14.00" length="10.23" shape="491.95,998.35 494.85,997.83 496.70,996.70 498.55,995.57 501.45,995.05"/>
    </edge>
    <edge id=":6_0" function="internal">
        <lane id=":6_0_0" index="0" speed="14.00" length="3.18" shape="495.05,1.45 495.45,-1.35 495.63,-1.65"/>
    </edge>
    <edge id=":6_4" function="internal">
        <lane id=":6_4_0" index="0" speed="14.00" length="7.14" shape="495.63,-1.65 496.65,-3.35 498.65,-4.55 501.45,-4.95"/>
    </edge>
    <edge id=":6_1" function="internal">
        <lane id=":6_1_0" index="0" speed="14.00" length="5.00" shape="498.35,1.45 498.54,0.09 499.13,-0.87 500.09,-1.46 501.45,-1.65"/>
    </edge>
    <edge id=":6_2" function="internal">
        <lane id=":6_2_0" index="0" speed="14.00" length="9.50" shape="491.95,-4.95 501.45,-4.95"/>
    </edge>
    <edge id=":6_3" function="internal">
        <lane id=":6_3_0" index="0" speed="14.00" length="9.50" shape="491.95,-1.65 501.45,-1.65"/>
    </edge>
    <edge id=":7_0" function="internal">
        <lane id=":7_0_0" index="0" speed="14.00" length="5.00" shape="991.95,1995.05 993.31,1994.86 994.27,1994.27 994.86,1993.31 995.05,1991.95"/>
    </edge>
    <edge id=":7_1" function="internal">
        <lane id=":7_1_0" index="0" speed="14.00" length="7.85" shape="991.95,1995.05 994.75,1994.86 996.75,1994.27 997.95,1993.31 998.35,1991.95"/>
    </edge>
    <edge id=":7_2" function="internal">
        <lane id=":7_2_0" index="0" speed="14.00" length="9.50" shape="991.95,1995.05 1001.45,1995.05"/>
    </edge>
    <edge id=":7_3" function="internal">
        <lane id=":7_3_0" index="0" speed="14.00" length="9.50" shape="991.95,1998.35 1001.45,1998.35"/>
    </edge>
    <edge id=":8_0" function="internal">
        <lane id=":8_0_0" index="0" speed="14.00" length="10.23" shape="995.05,1001.45 995.57,998.55 996.70,996.70 997.83,994.85 998.35,991.95"/>
    </edge>
    <edge id=":8_1" function="internal">
        <lane id=":8_1_0" index="0" speed="14.00" length="5.00" shape="998.35,1001.45 998.54,1000.09 999.12,999.12 1000.09,998.54 1001.45,998.35"/>
    </edge>
    <edge id=":8_2" function="internal">
        <lane id=":8_2_0" index="0" speed="14.00" length="5.00" shape="991.95,995.05 993.31,994.86 994.27,994.27 994.86,993.31 995.05,991.95"/>
    </edge>
    <edge id=":8_3" function="internal">
        <lane id=":8_3_0" index="0" speed="14.00" length="10.23" shape="991.95,998.35 994.85,997.83 996.70,996.70 998.55,995.57 1001.45,995.05"/>
    </edge>
    <edge id=":9_0" function="internal">
        <lane id=":9_0_0" index="0" speed="14.00" length="3.18" shape="995.05,1.45 995.45,-1.35 995.63,-1.65"/>
    </edge>
    <edge id=":9_4" function="internal">
        <lane id=":9_4_0" index="0" speed="14.00" length="7.14" shape="995.63,-1.65 996.65,-3.35 998.65,-4.55 1001.45,-4.95"/>
    </edge>
    <edge id=":9_1" function="internal">
        <lane id=":9_1_0" index="0" speed="14.00" length="5.00" shape="998.35,1.45 998.54,0.09 999.12,-0.87 1000.09,-1.46 1001.45,-1.65"/>
    </edge>
    <edge id=":9_2" function="internal">
        <lane id=":9_2_0" index="0" speed="14.00" length="9.50" shape="991.95,-4.95 1001.45,-4.95"/>
    </edge>
    <edge id=":9_3" function="internal">
        <lane id=":9_3_0" index="0" speed="14.00" length="9.50" shape="991.95,-1.65 1001.45,-1.65"/>
    </edge>

    <edge id="e1" from="1" to="2" priority="2">
        <lane id="e1_0" index="0" speed="14.00" length="990.50" shape="-4.95,1991.95 -4.95,1001.45"/>
        <lane id="e1_1" index="1" speed="14.00" length="990.50" shape="-1.65,1991.95 -1.65,1001.45"/>
    </edge>
    <edge id="e10" from="14" to="15" priority="2">
        <lane id="e10_0" index="0" speed="14.00" length="990.50" shape="1995.05,991.95 1995.05,1.45"/>
        <lane id="e10_1" index="1" speed="14.00" length="990.50" shape="1998.35,991.95 1998.35,1.45"/>
    </edge>
    <edge id="e11" from="16" to="17" priority="2">
        <lane id="e11_0" index="0" speed="14.00" length="992.00" shape="2495.05,1993.45 2495.05,1001.45"/>
        <lane id="e11_1" index="1" speed="14.00" length="992.00" shape="2498.35,1993.45 2498.35,1001.45"/>
    </edge>
    <edge id="e12" from="17" to="18" priority="2">
        <lane id="e12_0" index="0" speed="14.00" length="990.50" shape="2495.05,991.95 2495.05,1.45"/>
        <lane id="e12_1" index="1" speed="14.00" length="990.50" shape="2498.35,991.95 2498.35,1.45"/>
    </edge>
    <edge id="e13" from="1" to="4" priority="2">
        <lane id="e13_0" index="0" speed="14.00" length="490.50" shape="1.45,1995.05 491.95,1995.05"/>
        <lane id="e13_1" index="1" speed="14.00" length="490.50" shape="1.45,1998.35 491.95,1998.35"/>
    </edge>
    <edge id="e14" from="4" to="7" priority="2">
        <lane id="e14_0" index="0" speed="14.00" length="490.50" shape="501.45,1995.05 991.95,1995.05"/>
        <lane id="e14_1" index="1" speed="14.00" length="490.50" shape="501.45,1998.35 991.95,1998.35"/>
    </edge>
    <edge id="e15" from="7" to="10" priority="2">
        <lane id="e15_0" index="0" speed="14.00" length="490.50" shape="1001.45,1995.05 1491.95,1995.05"/>
        <lane id="e15_1" index="1" speed="14.00" length="490.50" shape="1001.45,1998.35 1491.95,1998.35"/>
    </edge>
    <edge id="e16" from="10" to="13" priority="2">
        <lane id="e16_0" index="0" speed="14.00" length="490.50" shape="1501.45,1995.05 1991.95,1995.05"/>
        <lane id="e16_1" index="1" speed="14.00" length="490.50" shape="1501.45,1998.35 1991.95,1998.35"/>
    </edge>
    <edge id="e17" from="13" to="16" priority="2">
        <lane id="e17_0" index="0" speed="14.00" length="492.00" shape="2001.45,1995.05 2493.45,1995.05"/>
        <lane id="e17_1" index="1" speed="14.00" length="492.00" shape="2001.45,1998.35 2493.45,1998.35"/>
    </edge>
    <edge id="e18" from="2" to="5" priority="2">
        <lane id="e18_0" index="0" speed="14.00" length="490.50" shape="1.45,995.05 491.95,995.05"/>
        <lane id="e18_1" index="1" speed="14.00" length="490.50" shape="1.45,998.35 491.95,998.35"/>
    </edge>
    <edge id="e19" from="5" to="8" priority="2">
        <lane id="e19_0" index="0" speed="14.00" length="490.50" shape="501.45,995.05 991.95,995.05"/>
        <lane id="e19_1" index="1" speed="14.00" length="490.50" shape="501.45,998.35 991.95,998.35"/>
    </edge>
    <edge id="e2" from="2" to="3" priority="2">
        <lane id="e2_0" index="0" speed="14.00" length="992.00" shape="-4.95,991.95 -4.95,-0.05"/>
        <lane id="e2_1" index="1" speed="14.00" length="992.00" shape="-1.65,991.95 -1.65,-0.05"/>
    </edge>
    <edge id="e20" from="8" to="11" priority="2">
        <lane id="e20_0" index="0" speed="14.00" length="490.50" shape="1001.45,995.05 1491.95,995.05"/>
        <lane id="e20_1" index="1" speed="14.00" length="490.50" shape="1001.45,998.35 1491.95,998.35"/>
    </edge>
    <edge id="e21" from="11" to="14" priority="2">
        <lane id="e21_0" index="0" speed="14.00" length="490.50" shape="1501.45,995.05 1991.95,995.05"/>
        <lane id="e21_1" index="1" speed="14.00" length="490.50" shape="1501.45,998.35 1991.95,998.35"/>
    </edge>
    <edge id="e22" from="14" to="17" priority="2">
        <lane id="e22_0" index="0" speed="14.00" length="490.50" shape="2001.45,995.05 2491.95,995.05"/>
        <lane id="e22_1" index="1" speed="14.00" length="490.50" shape="2001.45,998.35 2491.95,998.35"/>
    </edge>
    <edge id="e23" from="3" to="6" priority="2">
        <lane id="e23_0" index="0" speed="14.00" length="492.00" shape="-0.05,-4.95 491.95,-4.95"/>
        <lane id="e23_1" index="1" speed="14.00" length="492.00" shape="-0.05,-1.65 491.95,-1.65"/>
    </edge>
    <edge id="e24" from="6" to="9" priority="2">
        <lane id="e24_0" index="0" speed="14.00" length="490.50" shape="501.45,-4.95 991.95,-4.95"/>
        <lane id="e24_1" index="1" speed="14.00" length="490.50" shape="501.45,-1.65 991.95,-1.65"/>
    </edge>
    <edge id="e25" from="9" to="12" priority="2">
        <lane id="e25_0" index="0" speed="14.00" length="490.50" shape="1001.45,-4.95 1491.95,-4.95"/>
        <lane id="e25_1" index="1" speed="14.00" length="490.50" shape="1001.45,-1.65 1491.95,-1.65"/>
    </edge>
    <edge id="e26" from="12" to="15" priority="2">
        <lane id="e26_0" index="0" speed="14.00" length="490.50" shape="1501.45,-4.95 1991.95,-4.95"/>
        <lane id="e26_1" index="1" speed="14.00" length="490.50" shape="1501.45,-1.65 1991.95,-1.65"/>
    </edge>
    <edge id="e27" from="15" to="18" priority="2">
        <lane id="e27_0" index="0" speed="14.00" length="490.50" shape="2001.45,-4.95 2491.95,-4.95"/>
        <lane id="e27_1" index="1" speed="14.00" length="490.50" shape="2001.45,-1.65 2491.95,-1.65"/>
    </edge>
    <edge id="e3" from="4" to="5" priority="2">
        <lane id="e3_0" index="0" speed="14.00" length="990.50" shape="495.05,1991.95 495.05,1001.45"/>
        <lane id="e3_1" index="1" speed="14.00" length="990.50" shape="498.35,1991.95 498.35,1001.45"/>
    </edge>
    <edge id="e4" from="5" to="6" priority="2">
        <lane id="e4_0" index="0" speed="14.00" length="990.50" shape="495.05,991.95 495.05,1.45"/>
        <lane id="e4_1" index="1" speed="14.00" length="990.50" shape="498.35,991.95 498.35,1.45"/>
    </edge>
    <edge id="e5" from="7" to="8" priority="2">
        <lane id="e5_0" index="0" speed="14.00" length="990.50" shape="995.05,1991.95 995.05,1001.45"/>
        <lane id="e5_1" index="1" speed="14.00" length="990.50" shape="998.35,1991.95 998.35,1001.45"/>
    </edge>
    <edge id="e6" from="8" to="9" priority="2">
        <lane id="e6_0" index="0" speed="14.00" length="990.50" shape="995.05,991.95 995.05,1.45"/>
        <lane id="e6_1" index="1" speed="14.00" length="990.50" shape="998.35,991.95 998.35,1.45"/>
    </edge>
    <edge id="e7" from="10" to="11" priority="2">
        <lane id="e7_0" index="0" speed="14.00" length="990.50" shape="1495.05,1991.95 1495.05,1001.45"/>
        <lane id="e7_1" index="1" speed="14.00" length="990.50" shape="1498.35,1991.95 1498.35,1001.45"/>
    </edge>
    <edge id="e8" from="11" to="12" priority="2">
        <lane id="e8_0" index="0" speed="14.00" length="990.50" shape="1495.05,991.95 1495.05,1.45"/>
        <lane id="e8_1" index="1" speed="14.00" length="990.50" shape="1498.35,991.95 1498.35,1.45"/>
    </edge>
    <edge id="e9" from="13" to="14" priority="2">
        <lane id="e9_0" index="0" speed="14.00" length="990.50" shape="1995.05,1991.95 1995.05,1001.45"/>
        <lane id="e9_1" index="1" speed="14.00" length="990.50" shape="1998.35,1991.95 1998.35,1001.45"/>
    </edge>

    <tlLogic id="13" type="static" programID="0" offset="0">
        <phase duration="31" state="GGGG"/>
        <phase duration="4" state="yyyy"/>
    </tlLogic>
    <tlLogic id="14" type="static" programID="0" offset="0">
        <phase duration="31" state="GGGr"/>
        <phase duration="4" state="yyyr"/>
        <phase duration="31" state="rGGG"/>
        <phase duration="4" state="ryyy"/>
    </tlLogic>
    <tlLogic id="15" type="static" programID="0" offset="0">
        <phase duration="31" state="GGrr"/>
        <phase duration="4" state="yyrr"/>
        <phase duration="31" state="rrGG"/>
        <phase duration="4" state="rryy"/>
    </tlLogic>
    <tlLogic id="2" type="static" programID="0" offset="0">
        <phase duration="31" state="GGGG"/>
        <phase duration="4" state="yyyy"/>
    </tlLogic>
    <tlLogic id="3" type="static" programID="0" offset="0">
        <phase duration="31" state="GG"/>
        <phase duration="4" state="yy"/>
    </tlLogic>
    <tlLogic id="7" type="static" programID="0" offset="0">
        <phase duration="31" state="GGGG"/>
        <phase duration="4" state="yyyy"/>
    </tlLogic>
    <tlLogic id="8" type="static" programID="0" offset="0">
        <phase duration="31" state="GGGr"/>
        <phase duration="4" state="yyyr"/>
        <phase duration="31" state="rGGG"/>
        <phase duration="4" state="ryyy"/>
    </tlLogic>
    <tlLogic id="9" type="static" programID="0" offset="0">
        <phase duration="31" state="GGrr"/>
        <phase duration="4" state="yyrr"/>
        <phase duration="31" state="rrGG"/>
        <phase duration="4" state="rryy"/>
    </tlLogic>

    <junction id="1" type="unregulated" x="0.00" y="2000.00" incLanes="" intLanes="" shape="1.45,1999.95 1.45,1993.45 -0.05,1991.95 -6.55,1991.95">
    </junction>
    <junction id="10" type="priority" x="1500.00" y="2000.00" incLanes="e15_0 e15_1" intLanes=":10_0_0 :10_1_0 :10_2_0 :10_3_0" shape="1501.45,1999.95 1501.45,1993.45 1499.95,1991.95 1493.45,1991.95 1491.95,1993.45 1491.95,1999.95">
        <request index="0" response="0000" foes="0000" cont="0"/>
        <request index="1" response="0000" foes="0000" cont="0"/>
        <request index="2" response="0000" foes="0000" cont="0"/>
        <request index="3" response="0000" foes="0000" cont="0"/>
    </junction>
    <junction id="11" type="priority" x="1500.00" y="1000.00" incLanes="e7_0 e7_1 e20_0 e20_1" intLanes=":11_0_0 :11_1_0 :11_2_0 :11_3_0" shape="1493.45,1001.45 1499.95,1001.45 1501.45,999.95 1501.45,993.45 1499.95,991.95 1493.45,991.95 1491.95,993.45 1491.95,999.95">
        <request index="0" response="1000" foes="1000" cont="0"/>
        <request index="1" response="0000" foes="0000" cont="0"/>
        <request index="2" response="0000" foes="0000" cont="0"/>
        <request index="3" response="0000" foes="0001" cont="0"/>
    </junction>
    <junction id="12" type="priority" x="1500.00" y="0.00" incLanes="e8_0 e8_1 e25_0 e25_1" intLanes=":12_4_0 :12_1_0 :12_2_0 :12_3_0" shape="1493.45,1.45 1499.95,1.45 1501.45,-0.05 1501.45,-6.55 1491.95,-6.55 1491.95,-0.05">
        <request index="0" response="1100" foes="1100" cont="1"/>
        <request index="1" response="1100" foes="1100" cont="0"/>
        <request index="2" response="0000" foes="0011" cont="0"/>
        <request index="3" response="0000" foes="0011" cont="0"/>
    </junction>
    <junction id="13" type="traffic_light" x="2000.00" y="2000.00" incLanes="e16_0 e16_1" intLanes=":13_0_0 :13_1_0 :13_2_0 :13_3_0" shape="2001.45,1999.95 2001.45,1993.45 1999.95,1991.95 1993.45,1991.95 1991.95,1993.45 1991.95,1999.95">
        <request index="0" response="0000" foes="0000" cont="0"/>
        <request index="1" response="0000" foes="0000" cont="0"/>
        <request index="2" response="0000" foes="0000" cont="0"/>
        <request index="3" response="0000" foes="0000" cont="0"/>
    </junction>
    <junction id="14" type="traffic_light" x="2000.00" y="1000.00" incLanes="e9_0 e9_1 e21_0 e21_1" intLanes=":14_0_0 :14_1_0 :14_2_0 :14_3_0" shape="1993.45,1001.45 1999.95,1001.45 2001.45,999.95 2001.45,993.45 1999.95,991.95 1993.45,991.95 1991.95,993.45 1991.95,999.95">
        <request index="0" response="1000" foes="1000" cont="0"/>
        <request index="1" response="0000" foes="0000" cont="0"/>
        <request index="2" response="0000" foes="0000" cont="0"/>
        <request index="3" response="0000" foes="0001" cont="0"/>
    </junction>
    <junction id="15" type="traffic_light" x="2000.00" y="0.00" incLanes="e10_0 e10_1 e26_0 e26_1" intLanes=":15_4_0 :15_1_0 :15_2_0 :15_3_0" shape="1993.45,1.45 1999.95,1.45 2001.45,-0.05 2001.45,-6.55 1991.95,-6.55 1991.95,-0.05">
        <request index="0" response="1100" foes="1100" cont="1"/>
        <request index="1" response="1100" foes="1100" cont="0"/>
        <request index="2" response="0000" foes="0011" cont="0"/>
        <request index="3" response="0000" foes="0011" cont="0"/>
    </junction>
    <junction id="16" type="priority" x="2500.00" y="2000.00" incLanes="e17_0 e17_1" intLanes=":16_0_0 :16_1_0" shape="2499.95,1993.45 2493.45,1993.45 2493.45,1999.95">
        <request index="0" response="00" foes="00" cont="0"/>
        <request index="1" response="00" foes="00" cont="0"/>
    </junction>
    <junction id="17" type="priority" x="2500.00" y="1000.00" incLanes="e11_0 e11_1 e22_0 e22_1" intLanes=":17_0_0 :17_1_0 :17_2_0 :17_3_0" shape="2493.45,1001.45 2499.95,1001.45 2499.95,991.95 2493.45,991.95 2491.95,993.45 2491.95,999.95">
        <request index="0" response="1100" foes="1100" cont="0"/>
        <request index="1" response="1100" foes="1100" cont="0"/>
        <request index="2" response="0000" foes="0011" cont="0"/>
        <request index="3" response="0000" foes="0011" cont="0"/>
    </junction>
    <junction id="18" type="unregulated" x="2500.00" y="0.00" incLanes="e12_0 e12_1 e27_0 e27_1" intLanes="" shape="2493.45,1.45 2499.95,1.45 2491.95,-6.55 2491.95,-0.05">
    </junction>
    <junction id="2" type="traffic_light" x="0.00" y="1000.00" incLanes="e1_0 e1_1" intLanes=":2_0_0 :2_1_0 :2_2_0 :2_3_0" shape="-6.55,1001.45 -0.05,1001.45 1.45,999.95 1.45,993.45 -0.05,991.95 -6.55,991.95">
        <request index="0" response="0000" foes="0000" cont="0"/>
        <request index="1" response="0000" foes="0000" cont="0"/>
        <request index="2" response="0000" foes="0000" cont="0"/>
        <request index="3" response="0000" foes="0000" cont="0"/>
    </junction>
    <junction id="3" type="traffic_light" x="0.00" y="0.00" incLanes="e2_0 e2_1" intLanes=":3_0_0 :3_1_0" shape="-6.55,-0.05 -0.05,-0.05 -0.05,-6.55">
        <request index="0" response="00" foes="00" cont="0"/>
        <request index="1" response="00" foes="00" cont="0"/>
    </junction>
    <junction id="4" type="priority" x="500.00" y="2000.00" incLanes="e13_0 e13_1" intLanes=":4_0_0 :4_1_0 :4_2_0 :4_3_0" shape="501.45,1999.95 501.45,1993.45 499.95,1991.95 493.45,1991.95 491.95,1993.45 491.95,1999.95">
        <request index="0" response="0000" foes="0000" cont="0"/>
        <request index="1" response="0000" foes="0000" cont="0"/>
        <request index="2" response="0000" foes="0000" cont="0"/>
        <request index="3" response="0000" foes="0000" cont="0"/>
    </junction>
    <junction id="5" type="priority" x="500.00" y="1000.00" incLanes="e3_0 e3_1 e18_0 e18_1" intLanes=":5_0_0 :5_1_0 :5_2_0 :5_3_0" shape="493.45,1001.45 499.95,1001.45 501.45,999.95 501.45,993.45 499.95,991.95 493.45,991.95 491.95,993.45 491.95,999.95">
        <request index="0" response="1000" foes="1000" cont="0"/>
        <request index="1" response="0000" foes="0000" cont="0"/>
        <request index="2" response="0000" foes="0000" cont="0"/>
        <request index="3" response="0000" foes="0001" cont="0"/>
    </junction>
    <junction id="6" type="priority" x="500.00" y="0.00" incLanes="e4_0 e4_1 e23_0 e23_1" intLanes=":6_4_0 :6_1_0 :6_2_0 :6_3_0" shape="493.45,1.45 499.95,1.45 501.45,-0.05 501.45,-6.55 491.95,-6.55 491.95,-0.05">
        <request index="0" response="1100" foes="1100" cont="1"/>
        <request index="1" response="1100" foes="1100" cont="0"/>
        <request index="2" response="0000" foes="0011" cont="0"/>
        <request index="3" response="0000" foes="0011" cont="0"/>
    </junction>
    <junction id="7" type="traffic_light" x="1000.00" y="2000.00" incLanes="e14_0 e14_1" intLanes=":7_0_0 :7_1_0 :7_2_0 :7_3_0" shape="1001.45,1999.95 1001.45,1993.45 999.95,1991.95 993.45,1991.95 991.95,1993.45 991.95,1999.95">
        <request index="0" response="0000" foes="0000" cont="0"/>
        <request index="1" response="0000" foes="0000" cont="0"/>
        <request index="2" response="0000" foes="0000" cont="0"/>
        <request index="3" response="0000" foes="0000" cont="0"/>
    </junction>
    <junction id="8" type="traffic_light" x="1000.00" y="1000.00" incLanes="e5_0 e5_1 e19_0 e19_1" intLanes=":8_0_0 :8_1_0 :8_2_0 :8_3_0" shape="993.45,1001.45 999.95,1001.45 1001.45,999.95 1001.45,993.45 999.95,991.95 993.45,991.95 991.95,993.45 991.95,999.95">
        <request index="0" response="1000" foes="1000" cont="0"/>
        <request index="1" response="0000" foes="0000" cont="0"/>
        <request index="2" response="0000" foes="0000" cont="0"/>
        <request index="3" response="0000" foes="0001" cont="0"/>
    </junction>
    <junction id="9" type="traffic_light" x="1000.00" y="0.00" incLanes="e6_0 e6_1 e24_0 e24_1" intLanes=":9_4_0 :9_1_0 :9_2_0 :9_3_0" shape="993.45,1.45 999.95,1.45 1001.45,-0.05 1001.45,-6.55 991.95,-6.55 991.95,-0.05">
        <request index="0" response="1100" foes="1100" cont="1"/>
        <request index="1" response="1100" foes="1100" cont="0"/>
        <request index="2" response="0000" foes="0011" cont="0"/>
        <request index="3" response="0000" foes="0011" cont="0"/>
    </junction>

    <junction id=":12_4_0" type="internal" x="1495.63" y="-1.65" incLanes=":12_0_0 e25_0 e25_1" intLanes=":12_2_0 :12_3_0"/>
    <junction id=":15_4_0" type="internal" x="1995.63" y="-1.65" incLanes=":15_0_0 e26_0 e26_1" intLanes=":15_2_0 :15_3_0"/>