<?xml version="1.0" encoding="UTF-8"?>

<!-- generated on 05/14/17 17:22:06 by SUMO duarouter Version 0.29.0
<?xml version="1.0" encoding="UTF-8"?>

<configuration xmlns:xsi="http://www.w3.org/2001/XMLSchema-instance" xsi:noNamespaceSchemaLocation="http://sumo.dlr.de/xsd/duarouterConfiguration.xsd">

    <input>
        <net-file value="F:\Dev\vanetproject\VANETSim\simulations\_maps\i95highway\i95highway.net.xml"/>
        <trip-files value="trips.trips.xml"/>
    </input>

    <output>
        <output-file value="i95highway150.rou.xml"/>
    </output>

    <processing>
        <ignore-errors value="true"/>
    </processing>

    <time>
        <begin value="1000.0"/>
        <end value="3600.0"/>
    </time>

    <report>
        <no-warnings value="true"/>
        <no-step-log value="true"/>
    </report>

</configuration>
-->

<routes xmlns:xsi="http://www.w3.org/2001/XMLSchema-instance" xsi:noNamespaceSchemaLocation="http://sumo.dlr.de/xsd/routes_file.xsd">
    <vehicle id="0" depart="1000.00">
        <route edges="10775761#0 10772153#1 10777113#0 10777113#1"/>
    </vehicle>
    <vehicle id="1" depart="1017.00">
        <route edges="-10772293#3 10772293#3 10772293#4 10772293#5 -10777275#3 -10777275#2 -10777275#1 41703037#2 41703037#3 41703037#4 41703037#5 41703037#6 41703037#7 86700210#0 86700210#1 86700210#2 86700210#3 86700212 128992728#0 128992728#1 10775514#1 10775514#2 10775514#3 10775514#4 10776280 -10778469#2 10778469#2"/>
    </vehicle>
    <vehicle id="2" depart="1034.00">
        <route edges="-10775514#3 -10775514#2 -10775514#1 -10775514#0 158601758#0 158601758#1 128992729 86700213#0 86700213#1 86700213#2 86700213#3 86700211#0 86700211#1 86700211#2 86700211#3 86700211#4 86700211#5 86700211#6 86700211#7 86700211#8 81164849#0 81164849#1 128992727#0 128992727#1 128992727#2 128992727#3 128992727#4 128992727#5 128992727#6 128992727#7 128992727#8 128992727#9 128992727#10 -10770947#1 288534959#4 288534938"/>
    </vehicle>
    <vehicle id="4" depart="1068.00">
        <route edges="-10777341 10771929#3 10771929#4 -10775144#7 -10775144#6 -10775144#5 -10775144#4 -10775144#3 -10775144#2 -10775144#1 -10775144#0 10771105#0 288534959#6 288534959#7 288534959#8 288534959#9 288534959#10 -10774793#0 10771463#0 10771463#1 10771463#2 10767562#0 -10778782#5 -10778782#4 -10778782#3 10770618"/>
    </vehicle>
    <vehicle id="5" depart="1085.00">
        <route edges="-86700215#1 -86700215#0 -296360459#12 -296360459#11 -296360459#10 -296360459#9 -296360459#8 -296360459#7 -296360459#6"/>
    </vehicle>
    <vehicle id="6" depart="1102.00">
        <route edges="218099093#5 10775346#3 10775346#4 10775346#5 10775346#6 10775346#7 10770521#0 -10770520 -10775514#6 -10775514#5 -10775514#4 -10775514#3 -10775514#2 -10775514#1 -10775514#0 10769914#0 -10775909#1 10775125"/>
    </vehicle>
    <vehicle id="7" depart="1119.00">
        <route edges="-10772069#0 -10769072 -10775144#8 -10775144#7 -10775144#6 -10775144#5 -10775144#4 -10775144#3 -10775144#2 -10775144#1 296360459#7 296360459#8 296360459#9 296360459#10 296360459#11 296360459#12 296360459#13 -10777275#1 41703037#2 41703037#3 41703037#4 41703037#5 10767264 291271456#2 40343749#1 10766473 301725004 218101654#0 218101654#1 218101815#1 218101031 291271454"/>
    </vehicle>
    <vehicle id="8" depart="1136.00">
        <route edges="-10775144#18 -10775144#17 -10775144#16 -10775144#15 -10775144#14 -10775144#13 -10775144#12 -10775144#11 -10775144#10 -10775144#9 -10775144#8 -10775144#7 -10775144#6 -10775144#5 -10775144#4 -10775144#3 -10775144#2 -10775144#1 296360459#7 296360459#8 296360459#9 296360459#10 296360459#11 296360459#12 296360459#13 -10777275#1 41703037#2 41703037#3 41703037#4 41703037#5 41703037#6 41703037#7 86700210#0 86700210#1 86700210#2 86700210#3 10768229#0"/>
    </vehicle>
    <vehicle id="9" depart="1153.00">
        <route edges="10775761#2 -10775761#2 -10775761#1 -10775761#0 -10779138#0 158601758#1 128992729 86700213#0 86700213#1 86700213#2 86700213#3 86700211#0 86700211#1 86700211#2 86700211#3 86700211#4 86700211#5 10773762#1 -10773762#1"/>
    </vehicle>
    <vehicle id="10" depart="1170.00">
        <route edges="-10778440#0 -10776565#0 -10771929#0 -10775144#4 -10775144#3 -10775144#2 -10775144#1 -296360459#6 -296360459#5"/>
    </vehicle>
    <vehicle id="11" depart="1187.00">
        <route edges="10772319#0 -10772319#0 -10770765#6 -10770765#5 -10770765#4 -10770765#3 -10770765#2 -10770765#1 -10770765#0 -10768229#1 86700213#0 86700213#1 86700213#2 86700213#3 86700211#0 86700211#1 86700211#2 86700211#3 86700211#4 86700211#5 86700211#6 86700211#7 86700211#8 81164849#0 81164849#1 128992727#0 128992727#1 128992727#2 128992727#3 10771463#0 10771463#1 10771463#2 10767562#0 -10778782#5 -10778782#4 -10778782#3 -10778782#2 -10778782#1 10773649 -10774088#0"/>
    </vehicle>
    <vehicle id="12" depart="1204.00">
        <route edges="218101031 291271453 218101024#1 218101024#2 218101656#0 218101656#1 10775515#0 10775515#1 10775515#2 10775515#3 10775515#4"/>
    </vehicle>
    <vehicle id="13" depart="1221.00">
        <route edges="-10769914#4 -10769914#3 -10769914#2 -10769914#1 -10769914#0 10775514#0 10775514#1 10775514#2 10775514#3 10775514#4 10776280 10778469#3 10772662#0 10772662#1"/>
    </vehicle>
    <vehicle id="14" depart="1238.00">
        <route edges="-10778241#3 -10768631 10767936#2 10774721#1 -10775960#0 -10768229#6 -10768229#5 -10768229#4 -10768229#3 -10768229#2 -10768229#1 86700213#0 86700213#1 86700213#2 86700213#3 86700211#0 86700211#1 86700211#2 86700211#3 86700211#4 86700211#5 86700211#6 10777275#0 10777275#1 -296360459#13 -296360459#12 -296360459#11 -296360459#10 -296360459#9 -296360459#8 -296360459#7 -296360459#6 -296360459#5 -296360459#4 -296360459#3 10767395#0 10769671"/>
    </vehicle>
    <vehicle id="15" depart="1255.00">
        <route edges="288534949 288534959#7 288534959#8 288534959#9 288534959#10 288534959#11 288534959#12 288534959#13 288534959#14 288534965#0 288534965#1 41703037#0 41703037#1 41703037#2 41703037#3 41703037#4 41703037#5 41703037#6 41703037#7 86700210#0 86700210#1 86700210#2 86700210#3 86700212 128992728#0 86700219 10779138#0 10779138#1 10779138#2 10779138#3 10779138#4 10779138#5 10779138#6 10770689#0 10770275"/>
    </vehicle>
    <vehicle id="16" depart="1272.00">
        <route edges="128992728#0 86700219 158601758#1 128992729 86700213#0 86700213#1 86700213#2 86700213#3 86700211#0 86700211#1"/>
    </vehicle>
    <vehicle id="17" depart="1289.00">
        <route edges="10778552 10768235#1 10769202 -10775144#10 -10775144#9 -10775144#8 -10775144#7 -10775144#6 -10775144#5 -10775144#4 -10775144#3 -10775144#2 -10775144#1 -296360459#6 -296360459#5 -296360459#4 -296360459#3 -296360459#2 -296360459#1 -296360459#0"/>
    </vehicle>
    <vehicle id="18" depart="1306.00">
        <route edges="10769740 10770840#0 10770840#1 10770840#2 10770840#3 10770840#4 10770840#5 -10775144#18 -10775144#17 -10775144#16 -10775144#15 -10775144#14 -10775144#13 -10775144#12 -10775144#11 -10775144#10 -10775144#9 -10775144#8 -10775144#7 -10775144#6 -10775144#5 -10775144#4 -10775144#3 -10775144#2 -10775144#1 296360459#7 296360459#8 296360459#9 296360459#10 296360459#11 296360459#12 296360459#13 -10777275#1 41703037#2 41703037#3 41703037#4 41703037#5 41703037#6 41703037#7 86700210#0 86700210#1 86700210#2 86700210#3 86700212 128992728#0 86700219 10779138#0 10779138#1 -10779138#1"/>
    </vehicle>
    <vehicle id="19" depart="1323.00">
        <route edges="10767263 291271455 86700210#0 10767054#0 301725008#2 86700213#3 86700211#0 86700211#1 86700211#2 86700211#3 86700211#4 86700211#5 86700211#6 86700211#7 86700211#8 81164849#0 81164849#1 128992727#0 128992727#1 128992727#2 128992727#3 10771463#0 10771463#1 10771463#2 10771463#3 10771463#4 10767732#0 10767732#1 10767732#2 10767732#3 10767732#4 10776111 10779908 -10772443"/>
    </vehicle>
    <vehicle id="20" depart="1340.00">
        <route edges="-10779547#2 10769624#1 -10775144#6 -10775144#5 -10775144#4 -10775144#3 -10775144#2 -10775144#1 296360459#7 296360459#8 296360459#9 296360459#10 296360459#11 296360459#12 296360459#13 -10777275#1 41703037#2 41703037#3 41703037#4 41703037#5 41703037#6 41703037#7 86700210#0 86700210#1 86700210#2 86700210#3 86700212 128992728#0 86700219 10779138#0 10779138#1 10779138#2 10780428"/>
    </vehicle>
    <vehicle id="21" depart="1357.00">
        <route edges="-10770765#4 -10770765#3 -10770765#2 -10770765#1 -10770765#0 -10768229#1 86700213#0 86700213#1 86700213#2 86700213#3 10767263 291271456#0 291271456#1 291271456#2 40343749#1 10766473 10766552 218101656#1 10775515#0 10775515#1 10775515#2 10775515#3 10774565#0 10771106"/>
    </vehicle>
    <vehicle id="22" depart="1374.00">
        <route edges="10779908 -10779908 -10776111 -10767732#4 -10767732#3 -10767732#2 -10767732#1 -10767732#0 -10771463#4 -10771463#3 -10771463#2 -10771463#1 -10771463#0 10774793#0 288534959#11 288534959#12 288534959#13 288534959#14 288534965#0 288534965#1 41703037#0 41703037#1 41703037#2 41703037#3 41703037#4 41703037#5 10767264 291271456#2 40343749#1 10766473 301725004 218101654#0 218101655#1"/>
    </vehicle>
    <vehicle id="23" depart="1391.00">
        <route edges="10768229#8 -10768229#8 -10768229#7 -10768229#6 -10768229#5 -10768229#4 -10768229#3 -10768229#2 -10768229#1 -10768229#0 86700212 128992728#0 128992728#1 -10775514#0 10769914#0 10769914#1 10769914#2 10769914#3 10769914#4 10774277#0 10774277#1 10769025#0 10769025#1 10769025#2 -10769025#2"/>
    </vehicle>
    <vehicle id="24" depart="1408.00">
        <route edges="291271453 218101024#1 218101655#0 218101654#1 218101815#1 218101815#2 51738140#0 51738140#1 51738140#2 51738140#3 10770520 -10770521#0 -10775346#7 -10775346#6 -10775346#5 -10775346#4 10776423 -10776423"/>
    </vehicle>
    <vehicle id="27" depart="1459.00">
        <route edges="218103101#1 218103101#2 -218103101#0 -158601947#0 -128992807 218101020#0 218101020#1 218101011#0 218101011#1 40343758#1 10767050 301725008#0 301725008#1 301725008#2 86700213#3 86700211#0 86700211#1 86700211#2 86700211#3 86700211#4 86700211#5 86700211#6 86700211#7 86700211#8 81164849#0 -288534951 288534951"/>
    </vehicle>
    <vehicle id="29" depart="1493.00">
        <route edges="10769754 10779960#1 -10767562#1 -10767562#0 -10771463#2 -10771463#1 -10771463#0 10774793#0 288534959#11 288534959#12 288534959#13 288534959#14 288534965#0 288534965#1 41703037#0 41703037#1 41703037#2 41703037#3 41703037#4 41703037#5 41703037#6 41703037#7 86700210#0 86700210#1 86700210#2 86700210#3 10768229#0 10768229#1 10770765#0 10770765#1 10770765#2 10770765#3 10770765#4 10770765#5"/>
    </vehicle>
    <vehicle id="30" depart="1510.00">
        <route edges="10778241#3 10774721#0 10774721#1 -10775960#0 -10768229#6 -10768229#5 -10768229#4 -10768229#3 -10768229#2 -10768229#1 86700213#0 86700213#1 86700213#2 86700213#3 86700211#0 86700211#1 86700211#2 86700211#3 86700211#4 86700211#5 86700211#6 86700211#7 86700211#8 81164849#0 81164849#1 128992727#0 128992727#1 128992727#2 128992727#3 10771463#0 10771463#1 10771463#2 10767562#0 -10778782#5 -10778782#4 -10778782#3 -10778782#2 -10778782#1 -10778782#0 -10774088#1"/>
    </vehicle>
    <vehicle id="31" depart="1527.00">
        <route edges="86700211#2 86700211#3 86700211#4 86700211#5 86700211#6 86700211#7 86700211#8 81164849#0 81164849#1 128992727#0 128992727#1 128992727#2 128992727#3 128992727#4 128992727#5 128992727#6 128992727#7 128992727#8 128992727#9 128992727#10 -10770947#1 288534959#4"/>
    </vehicle>
    <vehicle id="32" depart="1544.00">
        <route edges="10771463#3 -10771463#3 -10771463#2 -10769015 -10777138#0 -10769516#0"/>
    </vehicle>
    <vehicle id="33" depart="1561.00">
        <route edges="-10779509#0 10779509#0 10770633#0 10773762#2 10773762#3"/>
    </vehicle>
    <vehicle id="34" depart="1578.00">
        <route edges="-10776193#1 -10776195 -10769025#3 -10769025#2 -10769025#1 -10769025#0 -10774277#1 -10774277#0 -10769914#4 -10769914#3 -10769914#2 -10769914#1 -10775909#1 -10775909#0 10779138#2 10779138#3 10779138#4 10779138#5 10779138#6 10770689#0 10770275 10769488#3 10777092#0 10777092#1"/>
    </vehicle>
    <vehicle id="37" depart="1629.00">
        <route edges="10767732#3 -10767732#3 -10767732#2 -10767732#1 -10767732#0 -10771463#4 -10771463#3 -10771463#2 -10771463#1 -10771463#0 10774793#0 288534959#11 288534959#12 288534959#13 288534959#14 288534965#0 288534965#1 41703037#0 41703037#1 41703037#2 41703037#3 41703037#4 41703037#5 41703037#6 41703037#7 86700210#0 86700210#1 86700210#2 86700210#3 86700212 128992728#0 128992728#1 -10775514#0 10769914#0 10769914#1 10769914#2 10769914#3 10769914#4"/>
    </vehicle>
    <vehicle id="38" depart="1646.00">
        <route edges="10772050#1 -10772050#1 -10772050#0 -10768229#3 -10768229#2 -10768229#1 86700213#0 86700213#1 86700213#2 86700213#3 86700211#0 86700211#1 86700211#2 86700211#3 86700211#4 86700211#5 86700211#6 86700211#7 86700211#8 81164849#0 81164849#1 128992727#0 128992727#1 128992727#2 128992727#3 10771463#0 10771463#1 10771463#2 10767562#0 10767562#1 -10779960#1 -10779960#0 -10779635"/>
    </vehicle>
    <vehicle id="39" depart="1663.00">
        <route edges="10779138#2 10779138#3 10779138#4 10774812"/>
    </vehicle>
    <vehicle id="40" depart="1680.00">
        <route edges="-10773875#0 -10777275#8 -10777275#7 -10777275#6 -10777275#5 -10777275#4 -10777275#3 -10777275#2 -296360459#13 86700215#0 86700215#1 86700211#8 81164849#0 81164849#1 128992727#0 128992727#1 128992727#2 128992727#3 128992727#4 128992727#5 128992727#6 128992727#7 128992727#8 128992727#9 128992727#10 128992727#11 -10769661#1 -10769661#0"/>
    </vehicle>
    <vehicle id="41" depart="1697.00">
        <route edges="-218103487#0 -86697327#0 86697327#2 86697327#3 86697277#1 86697277#2 86697277#3 86697277#4 158601758#0 158601758#1 128992729 86700213#0 86700213#1 86700213#2 86700213#3 86700211#0 86700211#1 86700211#2 86700211#3 86700211#4 86700211#5 86700211#6 86700211#7 86700211#8 81164849#0 81164849#1 128992727#0 128992727#1 128992727#2 128992727#3 10771463#0 10771463#1 10771463#2 10767562#0 -10778782#5 -10778782#4 -10778782#3 -10778782#2 10774088#0"/>
    </vehicle>
    <vehicle id="42" depart="1714.00">
        <route edges="10779138#2 -10779138#2 -10779138#1 -10779138#0 158601758#1 128992729 86700213#0 86700213#1 86700213#2 86700213#3 10767263 291271455 86700210#0 10767054#0 10767054#1"/>
    </vehicle>
    <vehicle id="43" depart="1731.00">
        <route edges="-10774276 -10775761#1 -10775761#0 -10779138#0 158601758#1 128992729 86700213#0 86700213#1 86700213#2 86700213#3 10767263 291271455 86700210#0"/>
    </vehicle>
    <vehicle id="44" depart="1748.00">
        <route edges="-10777341 10771929#3 10771929#4 -10775144#7 -10775144#6 -10775144#5 -10775144#4 -10775144#3 -10775144#2 -10775144#1 -10775144#0 10771105#0 288534959#6 288534959#7 288534959#8 288534959#9 288534959#10 -10774793#0 10771463#0 10771463#1 10771463#2 10771463#3 10771463#4 10767732#0 10767732#1 10767732#2 10767732#3 10767732#4 10767732#5"/>
    </vehicle>
    <vehicle id="45" depart="1765.00">
        <route edges="218099093#3 218099093#4 218099093#5 10775346#3 10775346#4 10775346#5 10775346#6 10775346#7 10770521#0 -10770520 -10775514#6 218101020#1 218101011#0 218101011#1 40343758#1 10767050 301725008#0 301725008#1 301725008#2 86700213#3 86700211#0 86700211#1 86700211#2 86700211#3 86700211#4 86700211#5 86700211#6 86700211#7 86700211#8 81164849#0 81164849#1 128992727#0 128992727#1 128992727#2 128992727#3 10771463#0 10771463#1"/>
    </vehicle>
    <vehicle id="47" depart="1799.00">
        <route edges="-10768262 -10778704 -10767732#0 -10771463#4 -10771463#3 -10771463#2 -10771463#1 -10771463#0 128992727#4 128992727#5 128992727#6 128992727#7 128992727#8 128992727#9 128992727#10 -10770947#1 288534959#4 288534959#5"/>
    </vehicle>
    <vehicle id="48" depart="1816.00">
        <route edges="-10767931 10767931 158601756#3 10779743#1 86697277#2 86697277#3 86697277#4 158601758#0 158601758#1 128992729 86700213#0 86700213#1 86700213#2 86700213#3 86700211#0 86700211#1 86700211#2 86700211#3 86700211#4 86700211#5 86700211#6 10777275#0 10777275#1 -296360459#13 -296360459#12 -296360459#11 -296360459#10 -296360459#9 -296360459#8 -296360459#7 -296360459#6 10770947#0"/>
    </vehicle>
    <vehicle id="49" depart="1833.00">
        <route edges="-10767936#0 -10778241#0 10768521#0 10768521#1 -228920720#2 -228920720#1 -228920720#0 -10772050#0 -10768229#3 -10768229#2 -10768229#1 -10768229#0 86700212 128992728#0 86700219 10779138#0 10779138#1 10779138#2 10779138#3 10779138#4 10779138#5 10779138#6 10770689#0 10770275 -10770275"/>
    </vehicle>
    <vehicle id="50" depart="1850.00">
        <route edges="10773649 -10773649 10778782#1 10778782#2 10778782#3 10778782#4 10778782#5 -10767562#0 -10771463#2 -10771463#1 -10771463#0 10774793#0 288534959#11 288534959#12 288534959#13 288534959#14 288534965#0 288534951 -288534951"/>
    </vehicle>
    <vehicle id="51" depart="1867.00">
        <route edges="218099093#2 218099093#3 218099093#4 218099093#5 10775346#3 10775346#4 10775346#5 10775346#6 10775346#7 10770521#0 -10770520 -10775514#6 218101020#1 218101020#2 218101024#0 218101024#1 218101024#2 218101656#0 218101656#1 218101656#2"/>
    </vehicle>
    <vehicle id="52" depart="1884.00">
        <route edges="-10779733 -10768229#5 -10768229#4 -10768229#3 -10768229#2 -10768229#1 -10768229#0 86700212 128992728#0 128992728#1 10775514#1 10775514#2 10775514#3 10778377#0 -10777482#1 -10778154#1 -10778154#0 -10777950#0"/>
    </vehicle>
    <vehicle id="53" depart="1901.00">
        <route edges="-10778362 -228920720#3 -228920720#2 -228920720#1 -228920720#0 -10772050#0 -10768229#3 -10768229#2"/>
    </vehicle>
    <vehicle id="55" depart="1935.00">
        <route edges="86700211#1 86700211#2 -10775757#4 41703037#5 41703037#6 41703037#7 86700210#0 86700210#1 86700210#2 86700210#3 86700212 128992728#0 86700219 10779138#0 10779138#1 10779138#2 10779138#3 10779138#4 10779138#5 10779138#6 10770689#0 10770689#1"/>
    </vehicle>
    <vehicle id="56" depart="1952.00">
        <route edges="10778241#0 -10778241#0 10768521#0 10768521#1 -228920720#2 -228920720#1 -228920720#0 -10772050#0 -10768229#3 -10768229#2 -10768229#1 -10768229#0 86700212 128992728#0 128992728#1 10775514#1 10775514#2 10775514#3 10778377#0 10778377#1 10778377#2"/>
    </vehicle>
    <vehicle id="57" depart="1969.00">
        <route edges="-10778377#1 -10778377#0 -10775514#3 -10775514#2 -10775514#1 -10775514#0 158601758#0 158601758#1 128992729 10768229#1 10768229#2 10768229#3 10768229#4"/>
    </vehicle>
    <vehicle id="58" depart="1986.00">
        <route edges="-10777092#0 -10769488#3 -10770275 -10770689#0 -10779138#6 -10779138#5 -10779138#4 -10779138#3 -10779138#2 -10779138#1 -10779138#0 158601758#1 128992729 86700213#0 86700213#1 86700213#2 86700213#3 86700211#0 86700211#1 86700211#2 86700211#3 86700211#4 86700211#5 86700211#6 10777275#0 10777275#1 10777275#2 10777275#3 -10772293#5 -10772293#4 -10772293#3 -10772293#2 -10772293#1 -10772293#0 218327575#1"/>
    </vehicle>
    <vehicle id="59" depart="2003.00">
        <route edges="10769661#0 288534959#3 288534959#4 288534959#5 288534959#6 288534959#7 288534959#8 288534959#9 288534959#10 288534959#11 288534959#12 288534959#13"/>
    </vehicle>
    <vehicle id="60" depart="2020.00">
        <route edges="-10775144#12 -10775144#11 -10769202 -10768235#1 -10778552"/>
    </vehicle>
    <vehicle id="61" depart="2037.00">
        <route edges="-10768985#0 10768985#0 -10775761#3 -10775761#2 -10775761#1 -10775761#0 -10779138#0 158601758#1 128992729 86700213#0 86700213#1 86700213#2 86700213#3 86700211#0 86700211#1 86700211#2 86700211#3 86700211#4 86700211#5 86700211#6 10777275#0 10777275#1 -296360459#13 -296360459#12 -296360459#11 -296360459#10 -296360459#9 -296360459#8 -296360459#7 10775144#1 10775144#2 10775144#3 10775144#4 10775144#5 10775144#6 10775144#7 10775144#8 10775144#9 10775144#10 10775144#11 10775144#12 10775144#13 10775144#14 10775144#15 10775144#16 10775144#17 10775144#18 -10770840#5 -10770840#4 -10770840#3 -10770840#2 10770840#2"/>
    </vehicle>
    <vehicle id="62" depart="2054.00">
        <route edges="-10775515#4 -10775515#3 -10775515#2 -10775515#1 218101027#1 218101027#2 218101027#3 218101815#0 218101815#1 218101031 291271454 218101016 218101011#1 40343758#1 10767050 10767053 86700210#3 10768229#0 10768229#1 10768229#2 10768229#3 10772050#0 228920720#0 228920720#1 228920720#2 -10768521#1 -10768521#0 10768521#0"/>
    </vehicle>
    <vehicle id="63" depart="2071.00">
        <route edges="10769914#3 -10769914#3 -10769914#2 -10769914#1 -10769914#0 158601758#0 158601758#1 128992729 10768229#1 10768229#2 10768229#3 10768229#4 10768229#5 10768229#6 10768229#7 10768229#8 -10768229#8"/>
    </vehicle>
    <vehicle id="65" depart="2105.00">
        <route edges="10773762#1 -10773762#1 -10773762#0 41703037#3 41703037#4 41703037#5 10767264 291271456#2 40343749#1 10766473 301725004 218101654#0 218101654#1 218101815#1 218101815#2 51738140#0 51738140#1 51738140#2 51738140#3 -10775514#6 218101020#1 218101011#0"/>
    </vehicle>
    <vehicle id="66" depart="2122.00">
        <route edges="10778241#3 10774721#0 10774721#1 -10775960#0 -10768229#6 -10768229#5 -10768229#4 -10768229#3 -10768229#2 10768229#2"/>
    </vehicle>
    <vehicle id="67" depart="2139.00">
        <route edges="-10768813#1 -10768813#0 -10775144#19 -10775144#18 -10775144#17 -10775144#16 -10775144#15 -10775144#14 -10775144#13 -10775144#12 -10775144#11 -10775144#10 -10775144#9 -10775144#8 -10775144#7 -10775144#6 -10775144#5 -10775144#4 -10775144#3 -10775144#2 -10775144#1 296360459#7 296360459#8 296360459#9 296360459#10 296360459#11 296360459#12 296360459#13 -10777275#1 41703037#2 41703037#3 41703037#4 41703037#5 10767264 291271456#2 40343749#1 10766473 10766552 218101656#1 10775515#0 -10775515#0"/>
    </vehicle>
    <vehicle id="68" depart="2156.00">
        <route edges="10768229#1 -10768229#1 -10768229#0 86700212 128992728#0 86700219 10779138#0 10779138#1 10779138#2 10779138#3 10779138#4 10779138#5 10779138#6 10770689#0 10770275 10769488#3 10777092#0 10777092#1 -10777092#1"/>
    </vehicle>
    <vehicle id="69" depart="2173.00">
        <route edges="291271454 218101024#0 218101024#1 218101655#0 218101654#1 218101815#1 218101815#2 51738140#0 51738140#1 51738140#2 51738140#3 -10775514#6 -10775514#5 -10775514#4 10778377#0 -10777482#1 -10777482#0 10777482#0"/>
    </vehicle>
    <vehicle id="70" depart="2190.00">
        <route edges="-10774793#3 -10774793#2 296360459#9 296360459#10 296360459#11 296360459#12 296360459#13 -10777275#1 41703037#2 41703037#3 41703037#4 41703037#5 41703037#6 41703037#7 86700210#0 86700210#1 86700210#2 86700210#3 86700212 128992728#0 86700219 10779138#0 10779138#1 10775909#0 10775125"/>
    </vehicle>
    <vehicle id="71" depart="2207.00">
        <route edges="218103101#0 -218103101#0 -158601947#0 -128992807 218101020#0 218101020#1 218101011#0 218101011#1 40343758#1 10767050 10767053 86700210#3 10768229#0 -10768229#0"/>
    </vehicle>
    <vehicle id="72" depart="2224.00">
        <route edges="288534954 -288534954 288534959#14 288534965#0 288534965#1 41703037#0 41703037#1 41703037#2 41703037#3 41703037#4 41703037#5 41703037#6 41703037#7 86700210#0 86700210#1 86700210#2 86700210#3 86700212 128992728#0 128992728#1 10775514#1 10775514#2 -10775514#2"/>
    </vehicle>
    <vehicle id="73" depart="2241.00">
        <route edges="10773762#1 -10773762#1 86700211#6 10777275#0 10777275#1 -296360459#13 -296360459#12 -296360459#11 -296360459#10 -296360459#9 -296360459#8 -296360459#7 10775144#1 10775144#2 10775144#3 10775144#4 10775144#5 10775144#6 10775144#7 10775144#8 10775144#9 10775144#10 10775144#11 10775144#12 10775144#13 10775144#14 10775144#15 10775144#16 10775144#17 10775144#18 10775144#19 10768813#0 10768813#1 -10768813#1"/>
    </vehicle>
    <vehicle id="74" depart="2258.00">
        <route edges="-10775346#7 10775346#7 10770521#0 -10770520 -10775514#6 218101020#1 218101020#2 218101024#0 218101024#1 218101024#2 218101656#0 218101656#1 218101656#2 -128992809 -10773875#1 -10773875#0 -10777275#8 -10777275#7 -10777275#6"/>
    </vehicle>
    <vehicle id="75" depart="2275.00">
        <route edges="10775346#0 10775346#1 218099092 218099093#3 218099093#4 218099093#5 10775346#3 10775346#4 10775346#5 10775346#6 10775346#7 10770521#0 -10770520 -10775514#6 218101020#1 218101011#0 218101011#1 40343758#1 10767050 10767053 86700210#3 10768229#0 10768229#1 10768229#2 10768229#3 10768229#4 10768229#5 10768229#6 10768229#7 10768229#8"/>
    </vehicle>
    <vehicle id="76" depart="2292.00">
        <route edges="10774276 -10777113#0 -10772153#1 -10775761#0 -10779138#0 158601758#1 128992729 86700213#0 86700213#1 86700213#2 86700213#3 86700211#0 86700211#1 86700211#2 86700211#3 86700211#4 86700211#5 86700211#6 86700211#7 86700211#8 81164849#0 81164849#1 128992727#0 128992727#1 128992727#2 128992727#3 128992727#4 128992727#5 128992727#6 128992727#7 128992727#8 128992727#9 128992727#10 128992727#11 128992727#12"/>
    </vehicle>
    <vehicle id="77" depart="2309.00">
        <route edges="-10776003#1 10776003#1 -10772673#0 288534970 41703037#0 41703037#1 41703037#2 41703037#3 41703037#4 41703037#5 10767264 291271456#2 40343749#1 10766473 10766552 218101656#1 10775515#0 10775515#1 10775515#2 10775515#3 10774565#0 10774565#1"/>
    </vehicle>
    <vehicle id="78" depart="2326.00">
        <route edges="-10772673#0 288534970 41703037#0 -86700215#0 296360459#13 10777275#2 10777275#3 10777275#4 10777275#5 10777275#6 10777275#7 10777275#8 10773875#0"/>
    </vehicle>
    <vehicle id="79" depart="2343.00">
        <route edges="10772050#0 -10772050#0 -10768229#3 -10768229#2 -10768229#1 86700213#0 86700213#1 86700213#2 86700213#3 86700211#0 86700211#1 86700211#2 86700211#3 86700211#4 86700211#5 86700211#6 10777275#0 10777275#1 -296360459#13 -296360459#12 -296360459#11 -296360459#10 -296360459#9 -296360459#8 -296360459#7 10775144#1 10775144#2 10775144#3 10775144#4 10775144#5 10775144#6 10775144#7 10775144#8 10775144#9 10775144#10 -10769202 -10768235#1 -10768235#0"/>
    </vehicle>
    <vehicle id="80" depart="2360.00">
        <route edges="-218103101#2 218103101#2 -218103101#0 218103101#0"/>
    </vehicle>
    <vehicle id="81" depart="2377.00">
        <route edges="10772443 -10779908 -10776111 -10767732#4 -10767732#3 -10767732#2 -10767732#1 -10767732#0 -10771463#4 -10771463#3 -10771463#2 -10771463#1 -10771463#0 128992727#4 128992727#5 128992727#6 128992727#7 128992727#8 -10771105#1 288534959#6"/>
    </vehicle>
    <vehicle id="82" depart="2394.00">
        <route edges="-10780228#1 10767931 158601756#3 158601756#4 -86697327#2"/>
    </vehicle>
    <vehicle id="83" depart="2411.00">
        <route edges="291271456#2 40343749#1 10766473 301725004 218101654#0 218101654#1 218101815#1 218101031 291271454 218101016 218101011#1 40343758#1 10767050 10767053 86700210#3 10768229#0 10768229#1 10768229#2"/>
    </vehicle>
    <vehicle id="84" depart="2428.00">
        <route edges="10774793#1 296360459#9 296360459#10 296360459#11 296360459#12 86700215#0 86700215#1 86700211#8 10772673#0 -10776003#1 -10776003#0 10776003#0"/>
    </vehicle>
    <vehicle id="85" depart="2445.00">
        <route edges="-10777713 10778782#5 -10767562#0 -10771463#2 -10771463#1 -10771463#0 128992727#4 128992727#5 128992727#6 128992727#7 128992727#8 -10771105#1 -10771105#0 10775144#0 -296360459#6 296360459#6"/>
    </vehicle>
    <vehicle id="86" depart="2462.00">
        <route edges="10768343#1 -10768343#1 10767574 10769067#3 10768235#0 10768235#1 10769202 -10775144#10 -10775144#9 -10775144#8 -10775144#7 -10775144#6 -10775144#5 -10775144#4 -10775144#3 -10775144#2 -10775144#1 296360459#7 296360459#8 296360459#9 296360459#10 296360459#11 296360459#12 296360459#13 -10777275#1 41703037#2 41703037#3 41703037#4 41703037#5 10767264 291271456#2 40343749#1 10766473 301725004 218101654#0 218101654#1 218101815#1 218101815#2 51738140#0 51738140#1 51738140#2 51738140#3 10770520 -10770521#0 -10775346#7 10775346#7"/>
    </vehicle>
    <vehicle id="87" depart="2479.00">
        <route edges="-10772069#1 -10775689 -10775144#9 -10775144#8 -10775144#7 -10775144#6 -10775144#5 -10775144#4 -10775144#3 -10775144#2 -10775144#1 296360459#7 296360459#8 296360459#9 296360459#10 296360459#11 296360459#12 296360459#13 -10777275#1 41703037#2 41703037#3 41703037#4 41703037#5 41703037#6 41703037#7 86700210#0 86700210#1 86700210#2 86700210#3 10768229#0 10768229#1 10768229#2 10768229#3 10772050#0 10772050#1 10770049 -10770049"/>
    </vehicle>
    <vehicle id="88" depart="2496.00">
        <route edges="-10771105#3 -10771105#2 -10771105#1 288534959#6 288534959#7 288534959#8 288534959#9 288534959#10 288534959#11 288534959#12 288534959#13 288534959#14 288534965#0 288534965#1 41703037#0 41703037#1 41703037#2 41703037#3 41703037#4 41703037#5 41703037#6 41703037#7 86700210#0 86700210#1 86700210#2 86700210#3 10768229#0 86700213#0 40343747"/>
    </vehicle>
    <vehicle id="89" depart="2513.00">
        <route edges="10767574 10769067#3 10768235#0 10768235#1 10769202 -10775144#10 -10775144#9 -10775144#8 -10775144#7 -10775144#6 -10775144#5 -10775144#4 -10775144#3 -10775144#2 -10775144#1 296360459#7 296360459#8 296360459#9 296360459#10 296360459#11 296360459#12 296360459#13 -10777275#1 41703037#2 41703037#3 41703037#4 41703037#5 41703037#6 41703037#7 86700210#0 86700210#1 86700210#2 86700210#3 86700212 128992728#0 128992728#1 -10775514#0 10775514#0"/>
    </vehicle>
    <vehicle id="90" depart="2530.00">
        <route edges="10769025#1 -10769025#1 -10769025#0 -10774277#1 -10774277#0 10774253 -10774253"/>
    </vehicle>
    <vehicle id="91" depart="2547.00">