<?xml version="1.0" encoding="UTF-8"?>

<!-- generated on 01/01/16 22:09:47 by SUMO polyconvert Version 0.19.0
<?xml version="1.0" encoding="UTF-8"?>

<configuration xmlns:xsi="http://www.w3.org/2001/XMLSchema-instance" xsi:noNamespaceSchemaLocation="http://sumo-sim.org/xsd/polyconvertConfiguration.xsd">

    <input>
        <osm-files value="i95highwaymap.osm"/>
    </input>

    <output>
        <output-file value="i95highway.poi.xml"/>
    </output>

    <projection>
        <proj.scale value="0"/>
        <proj.utm value="true"/>
    </projection>

</configuration>
-->

<shapes>
    <poly id="133112732" type="unknown" color="51,128,255" fill="1" layer="-1.00" shape="523338.62,3139215.88 523333.79,3139181.06 523342.84,3139180.78 523353.52,3139181.83 523361.45,3139184.95 523368.70,3139191.16 523373.58,3139198.77 523375.71,3139205.71 523377.04,3139213.97 523345.29,3139220.99 523338.62,3139215.88"/>
    <poly id="133112741" type="unknown" color="51,128,255" fill="1" layer="-1.00" shape="523141.10,3139497.43 523141.29,3139407.31 523137.07,3139401.48 523043.12,3139402.54 523044.23,3139423.62 523049.09,3139440.29 523058.38,3139458.84 523072.67,3139474.86 523086.96,3139485.47 523100.40,3139492.32 523114.26,3139496.46 523127.25,3139498.09 523141.10,3139497.43"/>
    <poly id="133112742" type="unknown" color="51,128,255" fill="1" layer="-1.00" shape="523252.78,3139402.33 523162.21,3139400.52 523156.27,3139404.60 523155.66,3139498.06 523176.85,3139497.35 523193.70,3139492.80 523212.50,3139483.91 523228.87,3139469.98 523239.78,3139455.96 523246.91,3139442.71 523251.32,3139429.02 523253.20,3139416.11 523252.78,3139402.33"/>
    <poly id="133112743" type="unknown" color="51,128,255" fill="1" layer="-1.00" shape="523248.88,3139241.84 523185.83,3139241.55 523185.67,3139229.02 523188.33,3139215.58 523194.10,3139202.46 523202.39,3139191.23 523212.31,3139181.93 523225.06,3139175.57 523236.18,3139172.62 523245.54,3139171.78 523253.52,3139172.40 523254.42,3139236.34 523248.88,3139241.84"/>
    <poly id="133112746" type="unknown" color="51,128,255" fill="1" layer="-1.00" shape="523046.17,3139386.93 523136.77,3139387.52 523142.65,3139383.36 523142.00,3139289.89 523120.81,3139290.89 523104.03,3139295.66 523085.35,3139304.81 523069.17,3139318.95 523058.45,3139333.12 523051.50,3139346.46 523047.28,3139360.22 523045.57,3139373.16 523046.17,3139386.93"/>
    <poly id="133112747" type="unknown" color="51,128,255" fill="1" layer="-1.00" shape="523255.67,3139255.66 523257.74,3139320.89 523245.13,3139320.92 523231.67,3139318.14 523218.52,3139312.27 523207.33,3139303.90 523198.08,3139293.94 523191.81,3139281.20 523188.95,3139270.10 523188.21,3139260.78 523188.91,3139252.85 523253.19,3139252.60 523255.67,3139255.66"/>
    <poly id="133112751" type="unknown" color="51,128,255" fill="1" layer="-1.00" shape="523371.84,3139251.58 523271.47,3139252.72 523265.68,3139257.30 523271.11,3139360.76 523292.26,3139359.28 523308.94,3139354.14 523327.70,3139346.95 523343.84,3139333.31 523354.83,3139320.98 523361.77,3139308.37 523368.64,3139294.23 523371.84,3139276.54 523371.84,3139251.58"/>
    <poly id="133112752" type="unknown" color="51,128,255" fill="1" layer="-1.00" shape="523152.65,3139293.33 523151.46,3139383.45 523155.62,3139389.33 523249.56,3139389.28 523248.69,3139368.21 523244.02,3139351.48 523234.94,3139332.83 523220.82,3139316.65 523206.65,3139305.88 523193.29,3139298.89 523179.48,3139294.60 523166.49,3139292.82 523152.65,3139293.33"/>
    <poly id="133112756" type="unknown" color="51,128,255" fill="1" layer="-1.00" shape="523268.22,3139236.47 523265.68,3139171.26 523278.28,3139171.14 523291.77,3139173.82 523304.95,3139179.60 523316.21,3139187.89 523325.53,3139197.79 523331.88,3139210.48 523334.83,3139221.56 523335.64,3139230.87 523334.99,3139238.80 523270.72,3139239.51 523268.22,3139236.47"/>
    <poly id="133112766" type="unknown" color="51,128,255" fill="1" layer="-1.00" shape="523066.56,3139645.42 523107.79,3139644.03 523129.44,3139639.06 523169.48,3139637.66 523181.02,3139648.59 523181.85,3139681.93 523177.64,3139710.55 523176.67,3139753.32 523132.48,3139750.57 523110.25,3139746.41 523098.39,3139742.84 523087.14,3139736.63 523081.81,3139729.24 523076.20,3139718.32 523072.07,3139704.44 523068.85,3139682.01 523066.56,3139645.42"/>
    <poly id="133634664" type="unknown" color="51,128,255" fill="1" layer="-1.00" shape="521383.63,3137209.43 521381.01,3137207.60 521379.97,3137204.71 521380.26,3137192.16 521379.21,3137183.53 521379.75,3137180.13 521383.96,3137177.27 521451.25,3137177.65 521455.96,3137189.17 521455.92,3137201.86 521453.82,3137207.46 521449.08,3137211.12 521383.63,3137209.43"/>
    <poly id="160860646" type="unknown" color="51,128,255" fill="0" layer="-1.00" shape="520443.30,3096958.91 520459.22,3096960.71 520478.07,3096979.02 520484.73,3096994.87 520495.68,3097027.90 520495.64,3097055.26 520490.70,3097069.32 520481.53,3097082.05 520466.27,3097094.20 520458.38,3097105.16 520454.04,3097114.34 520447.32,3097135.71 520441.78,3097158.19 520411.19,3097219.62 520384.93,3097281.72 520377.51,3097312.28 520377.50,3097312.84 520381.79,3097337.88 520390.22,3097353.73 520420.04,3097393.33 520445.05,3097431.81 520456.44,3097495.86 520458.25,3097528.10 520457.63,3097548.92 520452.02,3097611.61 520443.51,3097639.74 520421.41,3097685.34 520404.91,3097733.50 520382.33,3097771.90 520376.70,3097784.96 520364.59,3097798.90 520346.45,3097822.91 520319.94,3097861.19 520306.25,3097875.12 520315.13,3097915.90 520318.38,3097972.30 520321.48,3097997.45 520325.15,3098096.04 520299.46,3098113.72 520253.11,3098135.58 520247.76,3098165.15 520232.70,3098230.15 520206.98,3098268.21 520184.99,3098304.18 520150.50,3098354.41 520140.27,3098376.71 520136.59,3098384.74 520103.46,3098793.56 520131.77,3098970.52 520202.46,3099372.86 520201.89,3099713.94 519951.54,3099932.64 519792.83,3100140.08 519726.18,3100214.66 519720.04,3100231.13 519699.13,3100272.19 519704.74,3100327.70 519693.46,3100373.54 519654.86,3100417.01 519625.87,3100474.13 519619.44,3100556.31 519621.88,3100627.10 519661.45,3100831.99 519668.37,3101106.29 519669.53,3101241.77 519671.82,3101342.58 519687.19,3101377.50 519712.95,3101436.25 519767.33,3101477.99 519826.36,3101503.46 519879.69,3101586.85 519958.36,3101740.85 520116.43,3102015.18 520128.01,3102141.37 520132.08,3102354.40 520141.30,3102542.07 520181.38,3102725.81 520207.55,3102882.38 520252.15,3103010.62 520279.10,3103111.03 520285.57,3103180.72 520308.42,3103327.65 520372.52,3103485.62 520449.24,3103617.57 520506.80,3103691.00 520584.91,3103754.28 520668.50,3103832.85 520687.41,3103867.89 520687.42,3103913.86 520686.94,3103949.38 520686.19,3104004.70 520689.84,3104110.72 520714.94,3104255.99 520727.16,3104289.69 520734.21,3104305.76 520939.28,3104702.26 520948.53,3104709.91 520980.88,3104736.67 521004.48,3104756.17 521019.05,3104768.20 521076.69,3104794.00 521130.96,3104828.33 521304.11,3104976.09 522007.45,3105397.26 522326.73,3105609.32 522806.60,3105913.26 522933.97,3105948.95 523153.62,3106148.67 523220.06,3106212.04 523293.59,3106238.44 523389.84,3106258.23 523535.01,3106279.90 523594.48,3106313.80 523708.28,3106350.14 523781.46,3106358.04 523955.30,3106436.38 524086.46,3106486.49 524248.73,3106552.07 524326.20,3106574.05 524407.90,3106644.78 524433.21,3106709.08 524433.76,3106776.10 524413.97,3106942.23 524417.14,3107026.65 524430.89,3107074.09 524464.01,3107163.02 524489.42,3107231.29 524517.80,3107333.15 524543.26,3107419.61 524569.93,3107493.78 524590.41,3107565.27 524614.10,3107652.83 524638.80,3107776.07 524628.61,3107856.58 524619.57,3107957.37 524634.25,3108125.34 524641.99,3108180.75 524688.12,3108247.42 524771.07,3108371.66 524781.50,3108409.46 524818.93,3108504.92 524826.30,3108550.35 524864.15,3108629.19 524835.08,3108672.45 524798.36,3108808.63 524717.56,3108834.82 524683.64,3108851.37 524659.74,3108863.06 524607.13,3108891.20 524577.18,3108935.45 524582.53,3109007.36 524640.07,3109068.52 524697.60,3109129.67 524783.91,3109238.64 524824.67,3109332.11 524856.41,3109467.54 524855.13,3109613.77 524843.21,3109723.97 524819.85,3109811.54 524788.62,3109854.57 524762.16,3109873.79 524731.96,3109898.32 524691.85,3110006.91 524703.15,3110052.91 524750.00,3110244.54 524810.93,3110511.42 524953.44,3111075.36 525072.33,3111561.37 525093.65,3111648.49 525208.51,3112412.55 525148.34,3113004.86 525098.31,3113496.72 525058.43,3113829.42 525137.89,3114330.09 525168.51,3114522.57 525152.30,3114668.54 525122.07,3114942.33 524716.90,3115505.01 523669.95,3115719.01 523491.59,3115711.24 523392.64,3115705.95 523281.61,3115703.63 523200.98,3115672.12 523130.85,3115637.09 523003.46,3115618.34 522877.32,3115612.45 522775.67,3115607.67 522730.07,3115605.52 522671.65,3115613.72 522645.86,3115647.57 522617.88,3115697.81 522586.26,3115704.84 522545.43,3115700.11 522526.74,3115668.61 522509.20,3115651.07 522474.07,3115644.03 522446.05,3115662.70 522411.59,3115718.80 522361.32,3115772.65 522319.24,3115807.69 522269.03,3115828.64 522228.16,3115845.07 522209.45,3115876.61 522177.87,3115915.10 522149.85,3115937.32 522135.84,3115975.95 522129.98,3116013.27 522111.27,3116041.38 522088.17,3116056.51 522063.61,3116066.44 522018.66,3116061.81 521977.21,3116071.70 521931.04,3116089.23 521900.10,3116101.58 521874.97,3116097.99 521852.11,3116090.97 521817.09,3116076.40 521787.26,3116071.13 521765.07,3116072.31 521745.80,3116087.56 521724.77,3116102.15 521707.28,3116109.10 521680.68,3116109.16 521643.88,3116099.23 521599.84,3116081.43 521566.67,3116071.73 521528.19,3116075.87 521497.23,3116093.32 521474.40,3116125.51 521446.38,3116203.78 521441.10,3116245.87 521441.68,3116302.59 521422.96,3116340.55 521373.61,3116380.23 521291.84,3116433.92 521173.75,3116490.65 521117.73,3116528.11 520999.68,3116560.80 520936.61,3116587.72 520887.44,3116633.28 520861.75,3116673.00 520836.06,3116717.38 520804.47,3116759.42 520778.83,3116774.66 520743.78,3116776.93 520694.69,3116778.17 520650.22,3116781.64 520608.21,3116781.68 520565.01,3116784.04 520531.04,3116788.63 520501.56,3116809.08 520468.26,3116817.88 520420.95,3116815.58 520384.12,3116826.60 520346.11,3116840.05 520311.06,3116843.53 520275.43,3116841.26 520242.75,3116840.09 520212.90,3116845.36 520182.56,3116851.18 520150.95,3116850.02 520108.95,3116842.97 520091.38,3116841.28 520042.00,3116844.19 519966.69,3116853.48 519923.38,3116865.81 519895.39,3116878.06 519874.35,3116895.64 519848.03,3116904.35 519826.43,3116903.76 519808.87,3116900.29 519770.59,3116896.79 519752.52,3116901.97 519731.49,3116914.90 519720.95,3116937.04 519715.70,3116966.83 519699.96,3116987.96 519678.85,3116991.47 519645.58,3116991.41 519626.32,3117002.57 519607.63,3117022.92 519599.44,3117051.60 519586.59,3117103.65 519583.40,3117135.10 519558.40,3117178.71 519543.46,3117190.43 519526.55,3117205.91 519490.00,3117228.00 519472.59,3117244.81 519448.69,3117279.12 519425.67,3117305.78 519358.66,3117346.66 519313.59,3117357.88 519282.19,3117354.06 519261.12,3117331.65 519247.04,3117296.40 519225.88,3117271.55 519197.73,3117258.44 519181.33,3117261.29 519161.28,3117279.98 519148.10,3117297.02 519135.69,3117319.38 519117.61,3117330.20 519095.51,3117340.91 519065.34,3117362.13 518976.51,3117423.14 518928.45,3117464.28 518910.95,3117481.42 518877.16,3117497.32 518856.62,3117513.57 518843.52,3117539.69 518842.79,3117566.94 518836.66,3117593.85 518815.90,3117626.39 518796.34,3117642.31 518747.67,3117695.30 518725.24,3117727.05 518705.66,3117756.38 518699.15,3117779.96 518686.40,3117834.78 518679.12,3117843.08 518674.60,3117848.17 518667.43,3117853.80 518663.39,3117859.34 518651.30,3117874.72 518630.35,3117898.72 518613.95,3117906.89 518601.77,3117912.97 518591.93,3117926.91 518590.35,3117935.44 518568.70,3117967.20 518552.00,3117982.02 518539.42,3117987.20 518517.44,3117987.17 518507.71,3117992.03 518501.62,3117998.78 518492.63,3118035.87 518480.84,3118041.39 518460.12,3118047.57 518432.82,3118054.83 518421.42,3118067.89 518404.08,3118106.08 518406.29,3118136.33 518412.63,3118162.81 518403.05,3118201.90 518410.28,3118225.18 518404.26,3118249.32 518387.17,3118257.05 518373.81,3118259.35 518356.31,3118277.71 518344.50,3118299.19 518342.01,3118327.32 518335.50,3118345.37 518301.44,3118409.46 518266.22,3118462.91 518235.95,3118488.23 518206.67,3118513.00 518192.11,3118536.46 518178.26,3118543.86 518159.97,3118562.11 518117.62,3118596.95 518102.95,3118628.27 518081.30,3118661.70 518060.78,3118668.31 518034.16,3118684.22 518025.40,3118703.04 518018.83,3118758.20 518006.13,3118784.44 517967.65,3118854.72 517941.30,3118889.02 517910.25,3118912.79 517869.69,3118927.02 517828.56,3118931.17 517805.78,3118938.56 517776.15,3118936.41 517734.23,3118943.33 517730.20,3118950.41 517711.34,3118956.14 517622.79,3118971.63 517587.73,3118988.75 517531.55,3119019.69 517461.30,3119067.99 517337.28,3119113.56 517275.15,3119118.57 517232.82,3119139.22 517061.94,3119220.95 516877.19,3119318.73 516765.63,3119373.30 516677.91,3119500.35 516651.41,3119568.77 516639.33,3119648.18 516612.46,3119772.55 516483.86,3119942.97 516426.28,3119998.06 516324.65,3120041.57 516208.46,3120109.54 516083.17,3120161.43 515942.88,3120205.33 515832.55,3120225.01 515637.80,3120262.31 515536.50,3120280.35 515318.31,3120317.62 515222.80,3120333.11 514910.19,3120377.25 514798.12,3120541.84 514750.62,3120699.64 514675.83,3120791.05 514585.17,3120866.93 514382.20,3120982.56 514222.57,3121121.51 514133.44,3121230.08 514101.34,3121326.42 514047.73,3121436.80 513928.35,3121574.14 513924.11,3121673.94 513962.53,3121799.39 514019.54,3121877.78 514104.69,3121980.24 514150.68,3122081.54 514190.82,3122240.34 514189.04,3122333.17 514155.98,3122409.90 514091.04,3122487.70 513925.87,3122684.80 513832.65,3122867.81 513764.95,3123041.10 513730.03,3123119.05 513689.80,3123208.96 513707.84,3123306.58 513730.56,3123422.37 513746.06,3123510.34 513748.11,3123606.39 513737.83,3123667.42 513724.47,3123683.69 513619.65,3123974.92 513710.42,3124381.25 513933.72,3124778.32 514184.81,3125053.02 514356.64,3125245.32 514416.60,3125299.56 514734.12,3125694.88 515011.37,3125967.19 515286.07,3126459.29 515608.59,3126657.79 515826.28,3126695.74 516088.68,3126741.40 516319.97,3126874.99 516537.65,3126911.07 516610.62,3126910.18 516682.78,3127001.67 516693.72,3127170.51 516663.60,3127386.94 516637.95,3127493.03 516498.80,3127556.97 516518.53,3127681.63 516609.71,3127770.82 516677.58,3127838.72 516799.57,3127849.75 516852.56,3127896.02 516920.45,3127942.86 516970.16,3128018.26 516988.34,3128134.39 517006.40,3128255.05 517003.51,3128357.96 517049.34,3128472.24 517138.42,3128580.94 517234.93,3128638.24 517369.20,3128694.05 517464.27,3128728.75 517542.63,3128787.58 517582.63,3128862.97 517629.37,3128954.99 517647.89,3129025.25 517663.33,3129063.71 517689.79,3129143.73 517730.26,3129228.65 517764.66,3129300.82 517852.21,3129376.84 517930.56,3129444.98 518026.92,3129528.76 518161.87,3129578.15 518210.05,3129615.89 518232.27,3129645.51 518246.31,3129696.38 518259.99,3129787.79 518280.34,3129820.83 518320.90,3129843.72 518378.66,3129836.38 518432.25,3129804.34 518504.07,3129773.77 518544.74,3129790.56 518580.21,3129808.23 518598.93,3129877.16 518623.11,3129965.94 518649.14,3129997.99 518683.57,3130047.57 518762.83,3130154.48 518828.19,3130242.66 518919.96,3130366.55 518982.38,3130450.62 519072.88,3130572.84 519121.50,3130643.60 519148.21,3130674.33 519202.26,3130722.16 519234.96,3130751.13 519227.52,3130803.63 519221.17,3130848.93 519185.41,3130890.97 519152.90,3130929.13 519149.30,3130971.67 519160.50,3131020.65 519201.52,3131054.84 519229.62,3131079.14 519234.42,3131084.58 519254.38,3131106.99 519254.31,3131152.74 519250.02,3131194.72 519234.61,3131270.58 519219.30,3131338.02 519214.26,3131359.84 519150.07,3131403.05 519104.54,3131432.44 519081.08,3131449.35 519065.29,3131450.99 518999.20,3131456.87 518980.08,3131460.93 518898.32,3131515.64 518878.71,3131577.20 518866.19,3131620.50 518837.73,3131639.73 518810.36,3131649.54 518750.74,3131656.65 518719.54,3131671.45 518700.39,3131691.13 518716.32,3131725.06 518725.30,3131751.66 518716.85,3131765.05 518674.63,3131801.65 518440.92,3132048.77 518293.02,3132594.47 518241.79,3132946.90 518078.25,3133673.04 517075.16,3134575.08 516546.81,3134818.49 516122.94,3135002.68 515655.66,3135195.37 514032.86,3135905.54 513672.65,3136023.33 513052.16,3136236.32 512794.46,3136560.41 512456.21,3136985.67"/>
    <poly id="162446646" type="unknown" color="51,128,255" fill="0" layer="-1.00" shape="508402.01,3139755.30 508410.68,3139887.24 508393.20,3140056.88 508509.32,3139968.33 508629.58,3139877.90 511565.77,3138325.13 516767.65,3138129.53 518723.53,3138139.66"/>
    <poly id="162603373" type="unknown" color="51,128,255" fill="0" layer="-1.00" shape="491529.83,3113428.24 491598.27,3113426.87 491997.27,3114912.74 507840.09,3132844.52 510173.82,3135703.74 512267.54,3138269.89 516765.58,3138112.27 518726.20,3138118.54"/>
    <poly id="163748710" type="unknown" color="51,128,255" fill="1" layer="-1.00" shape="517679.82,3139238.98 517679.71,3139315.32 517748.01,3139331.11 517746.04,3139240.13 517679.82,3139238.98"/>
    <poly id="163748737" type="unknown" color="51,128,255" fill="1" layer="-1.00" shape="517854.12,3139374.14 517859.84,3139239.56 517919.50,3139237.24 517923.41,3139427.57 517910.00,3139432.05 517893.19,3139423.66 517854.12,3139374.14"/>
    <poly id="163748780" type="unknown" color="51,128,255" fill="1" layer="-1.00" shape="517711.92,3139569.47 517747.66,3139569.52 517747.99,3139513.38 517762.76,3139477.84 517777.25,3139461.86 517758.35,3139444.05 517604.14,3139413.81 517592.33,3139401.98 517593.28,3139467.86 517632.49,3139433.73 517709.99,3139451.30 517729.13,3139474.65 517723.55,3139520.34 517711.92,3139569.47"/>
    <poly id="217382064" type="unknown" color="51,128,255" fill="1" layer="-1.00" shape="519446.94,3137590.44 519549.48,3137571.26 519544.87,3137497.51 519530.19,3137472.39 519447.67,3137465.46 519431.19,3137576.81 519446.94,3137590.44"/>
    <poly id="217382065" type="unknown" color="51,128,255" fill="1" layer="-1.00" shape="519287.16,3137572.92 519399.11,3137588.79 519415.96,3137572.08 519400.36,3137466.94 519351.47,3137467.39 519330.44,3137470.50 519300.44,3137490.32 519290.70,3137504.19 519283.82,3137535.03 519287.16,3137572.92"/>
    <poly id="217382066" type="unknown" color="51,128,255" fill="1" layer="-1.00" shape="519373.05,3137130.12 519360.56,3137210.93 519274.09,3137214.17 519274.78,3137108.53 519361.52,3137113.90 519373.05,3137130.12"/>
    <poly id="217382067" type="unknown" color="51,128,255" fill="1" layer="-1.00" shape="519427.98,3137613.94 519434.64,3137716.45 519480.90,3137718.62 519513.49,3137715.00 519540.85,3137701.46 519550.88,3137677.94 519547.81,3137624.60 519518.83,3137615.42 519440.09,3137600.89 519427.98,3137613.94"/>
    <poly id="217382068" type="unknown" color="51,128,255" fill="1" layer="-1.00" shape="519416.93,3137614.96 519406.97,3137600.30 519290.78,3137618.42 519288.61,3137657.12 519299.06,3137695.31 519319.79,3137713.40 519348.69,3137722.34 519385.74,3137722.64 519410.46,3137721.64 519419.92,3137714.85 519416.93,3137614.96"/>
    <poly id="217382069" type="unknown" color="51,128,255" fill="1" layer="-1.00" shape="519257.79,3137215.18 519263.11,3137334.71 519308.59,3137331.35 519335.43,3137309.44 519358.60,3137284.37 519358.71,3137217.96 519257.79,3137215.18"/>
    <poly id="217382070" type="unknown" color="51,128,255" fill="1" layer="-1.00" shape="519396.70,3137450.21 519462.94,3137450.32 519493.48,3137421.08 519488.88,3137337.93 519391.66,3137324.18 519377.97,3137338.27 519396.70,3137450.21"/>
    <poly id="218098431" type="unknown" color="51,128,255" fill="1" layer="-1.00" shape="517684.30,3139749.29 517753.77,3139684.56 517686.50,3139687.60 517684.30,3139749.29"/>
    <poly id="218098731" type="unknown" color="51,128,255" fill="1" layer="-1.00" shape="518580.36,3139433.83 518585.32,3139439.01 518580.18,3139447.27 518463.86,3139449.95 518452.13,3139443.74 518447.36,3139282.12 518451.66,3139272.72 518489.19,3139256.96 518522.80,3139241.93 518535.62,3139144.10 518530.47,3139077.16 518554.65,3139074.06 518565.12,3139100.22 518556.52,3139256.46 518541.71,3139281.09 518496.51,3139282.07 518463.85,3139330.12 518462.56,3139381.51 518479.32,3139416.78 518535.17,3139430.62 518580.36,3139433.83"/>
    <poly id="218099480" type="unknown" color="51,128,255" fill="1" layer="-1.00" shape="518829.72,3138647.79 518891.14,3138647.89 518891.17,3138628.62 518849.12,3138628.55 518849.21,3138568.95 518829.85,3138568.92 518829.72,3138647.79"/>
    <poly id="218099481" type="unknown" color="51,128,255" fill="1" layer="-1.00" shape="518838.82,3138548.00 518857.08,3138561.52 518868.23,3138546.61 518849.98,3138533.09 518838.82,3138548.00"/>
    <poly id="218099482" type="unknown" color="51,128,255" fill="1" layer="-1.00" shape="518887.79,3138575.80 518908.26,3138590.06 518919.37,3138574.26 518912.77,3138569.67 518908.23,3138576.14 518894.35,3138566.48 518887.79,3138575.80"/>
    <poly id="218099483" type="unknown" color="51,128,255" fill="1" layer="-1.00" shape="518976.95,3138610.76 518996.84,3138626.42 519000.04,3138622.38 518980.16,3138606.74 518976.95,3138610.76"/>
    <poly id="218099484" type="unknown" color="51,128,255" fill="1" layer="-1.00" shape="518970.71,3138626.46 518986.53,3138638.49 518991.35,3138632.20 518975.53,3138620.18 518970.71,3138626.46"/>
    <poly id="218099719" type="unknown" color="51,128,255" fill="1" layer="-1.00" shape="518926.09,3138664.16 518811.94,3138664.38 518811.73,3138556.85 518829.87,3138556.81 518830.05,3138648.24 518926.05,3138648.05 518926.09,3138664.16"/>
    <poly id="218102208" type="unknown" color="51,128,255" fill="1" layer="-1.00" shape="519315.12,3138895.08 519327.26,3138904.26 519336.56,3138892.08 519324.41,3138882.90 519315.12,3138895.08"/>
    <poly id="218102210" type="unknown" color="51,128,255" fill="1" layer="-1.00" shape="519323.75,3138867.21 519348.35,3138884.69 519351.96,3138879.65 519327.37,3138862.19 519323.75,3138867.21"/>
    <poly id="218102440" type="unknown" color="51,128,255" fill="1" layer="-1.00" shape="519451.01,3139103.21 519434.29,3139076.60 519433.09,3139054.43 519444.10,3139032.44 519455.35,3139031.05 519473.46,3139036.58 519488.93,3139059.86 519488.36,3139086.53 519472.56,3139106.90 519451.01,3139103.21"/>
    <poly id="218102470" type="unknown" color="51,128,255" fill="1" layer="-1.00" shape="519034.32,3138543.37 519040.24,3138548.02 519046.46,3138540.19 519051.07,3138543.82 519056.52,3138536.96 519046.00,3138528.67 519034.32,3138543.37"/>
    <poly id="218103103" type="unknown" color="51,128,255" fill="1" layer="-1.00" shape="518434.64,3138536.36 518433.68,3138482.49 518444.21,3138462.65 518468.93,3138491.78 518434.64,3138536.36"/>
    <poly id="218103104" type="unknown" color="51,128,255" fill="1" layer="-1.00" shape="518517.74,3138620.51 518663.68,3138625.09 518569.70,3138551.20 518517.74,3138620.51"/>
    <poly id="218103110" type="unknown" color="51,128,255" fill="1" layer="-1.00" shape="518162.13,3138712.70 518256.76,3138700.29 518185.34,3138654.16 518199.58,3138627.31 518162.27,3138623.81 518162.13,3138712.70"/>
    <poly id="218103111" type="unknown" color="51,128,255" fill="1" layer="-1.00" shape="518156.53,3138250.45 518165.05,3138176.21 518271.77,3138170.41 518222.83,3138202.44 518191.25,3138231.67 518156.53,3138250.45"/>
    <poly id="218103483" type="unknown" color="51,128,255" fill="1" layer="-1.00" shape="518223.99,3137439.48 518263.41,3137439.01 518256.95,3137200.02 518222.77,3137205.20 518232.71,3137236.59 518238.42,3137282.09 518224.72,3137322.15 518217.30,3137339.59 518223.99,3137439.48"/>
    <poly id="218103485" type="unknown" color="51,128,255" fill="1" layer="-1.00" shape="517869.07,3137864.11 517969.99,3137866.34 517871.29,3137789.85 517869.07,3137864.11"/>
    <poly id="218103488" type="unknown" color="51,128,255" fill="1" layer="-1.00" shape="518027.63,3137283.34 518101.77,3137284.84 518098.14,3137232.72 518126.08,3137197.54 518123.01,3137126.60 518040.48,3137126.47 518042.58,3137144.07 518029.88,3137178.76 518021.96,3137204.37 518027.63,3137283.34"/>
    <poly id="218103490" type="unknown" color="51,128,255" fill="1" layer="-1.00" shape="518027.11,3137504.74 518057.42,3137504.21 518055.16,3137375.36 518024.85,3137375.88 518027.11,3137504.74"/>
    <poly id="218103641" type="unknown" color="51,128,255" fill="1" layer="-1.00" shape="518773.19,3137028.99 518819.92,3137029.18 518819.97,3137019.54 518827.31,3137019.58 518827.54,3136966.21 518773.45,3136965.98 518773.19,3137028.99"/>
    <poly id="218103808" type="unknown" color="51,128,255" fill="1" layer="-1.00" shape="518405.43,3137040.75 518522.67,3137039.36 518524.86,3136977.14 518405.53,3136978.52 518405.43,3137040.75"/>
    <poly id="218103809" type="unknown" color="51,128,255" fill="1" layer="-1.00" shape="518819.31,3136929.73 518862.40,3136928.76 518860.84,3136917.78 518831.67,3136915.89 518831.26,3136880.95 518815.44,3136882.40 518819.31,3136929.73"/>
    <poly id="218103917" type="unknown" color="51,128,255" fill="1" layer="-1.00" shape="519392.26,3136637.57 519429.02,3136657.51 519483.24,3136648.50 519494.36,3136564.53 519476.50,3136555.08 519463.86,3136574.93 519433.31,3136603.13 519410.17,3136613.55 519388.07,3136627.11 519392.26,3136637.57"/>
    <poly id="218103920" type="unknown" color="51,128,255" fill="1" layer="-1.00" shape="519252.27,3136403.03 519349.54,3136399.52 519351.29,3136292.84 519247.19,3136297.37 519252.27,3136403.03"/>
    <poly id="218103922" type="unknown" color="51,128,255" fill="1" layer="-1.00" shape="519458.37,3136391.34 519536.71,3136388.33 519536.89,3136275.89 519460.13,3136279.42 519458.37,3136391.34"/>
    <poly id="218103952" type="unknown" color="51,128,255" fill="1" layer="-1.00" shape="519174.57,3136019.05 518974.79,3136018.73 518948.52,3136005.09 518992.27,3135969.91 519165.75,3135976.46 519320.36,3135950.57 519369.18,3135957.66 519374.33,3136026.70 519369.00,3136070.62 519414.23,3136062.33 519426.78,3136101.05 519352.71,3136102.29 519339.60,3136047.57 519295.49,3136015.07 519174.57,3136019.05"/>
    <poly id="218289782" type="unknown" color="51,128,255" fill="1" layer="-1.00" shape="523203.33,3139850.07 523271.71,3139850.66 523273.09,3139693.03 523204.71,3139692.43 523203.33,3139850.07"/>
    <poly id="218289784" type="unknown" color="51,128,255" fill="1" layer="-1.00" shape="523311.46,3139792.50 523320.40,3139792.52 523328.82,3139782.87 523335.66,3139783.67 523335.39,3139788.89 523345.92,3139778.46 523351.54,3139779.28 523359.07,3139770.37 523358.74,3139764.30 523369.20,3139754.22 523364.35,3139755.23 523364.90,3139748.69 523373.32,3139740.08 523373.87,3139729.62 523334.19,3139729.29 523335.53,3139714.13 523320.89,3139728.23 523309.75,3139727.94 523310.10,3139737.90 523296.30,3139751.69 523311.81,3139751.46 523311.46,3139792.50"/>
    <poly id="218292469" type="unknown" color="51,128,255" fill="1" layer="-1.00" shape="523031.43,3139746.47 522920.64,3139743.92 522908.20,3139738.38 522898.36,3139719.58 522900.38,3139702.82 522905.24,3139694.23 522913.81,3139687.68 522920.66,3139683.51 523037.85,3139684.26 523049.77,3139691.63 523056.85,3139700.01 523060.77,3139714.66 523054.31,3139733.44 523045.09,3139742.84 523031.43,3139746.47"/>
    <poly id="218292471" type="unknown" color="51,128,255" fill="1" layer="-1.00" shape="523079.50,3139756.23 522910.38,3139749.92 522899.36,3139741.01 522890.35,3139725.28 522889.17,3139712.49 522892.25,3139696.27 522900.16,3139685.04 522910.94,3139675.91 522924.35,3139672.54 523037.62,3139673.54 523055.83,3139682.23 523064.75,3139692.97 523068.93,3139706.05 523069.04,3139725.89 523061.77,3139738.97 523057.29,3139746.55 523080.04,3139747.08 523079.50,3139756.23"/>
    <poly id="218292472" type="unknown" color="51,128,255" fill="1" layer="-1.00" shape="522916.15,3139736.76 523036.75,3139738.91 523037.65,3139689.16 522917.04,3139687.01 522916.15,3139736.76"/>
    <poly id="218298462" type="unknown" color="51,128,255" fill="1" layer="-1.00" shape="523332.01,3139697.30 523425.25,3139698.20 523425.67,3139654.53 523332.44,3139653.63 523332.01,3139697.30"/>
    <poly id="218298480" type="unknown" color="51,128,255" fill="1" layer="-1.00" shape="523206.16,3139587.19 523408.42,3139587.86 523408.49,3139566.68 523342.55,3139566.46 523206.23,3139566.01 523206.16,3139587.19"/>
    <poly id="218313210" type="unknown" color="51,128,255" fill="1" layer="-1.00" shape="522762.53,3139520.86 522752.27,3139520.84 522753.04,3139396.40 522759.12,3139384.95 522768.60,3139370.29 522782.81,3139360.68 522794.39,3139357.30 522806.46,3139358.86 522823.28,3139365.20 522832.44,3139375.11 522841.35,3139387.68 522845.27,3139403.64 522844.82,3139496.97 522835.33,3139520.78 522816.11,3139532.99 522806.38,3139536.37 522791.40,3139536.35 522779.32,3139532.40 522762.53,3139520.86"/>
    <poly id="218313212" type="unknown" color="51,128,255" fill="1" layer="-1.00" shape="522774.36,3139517.48 522764.68,3139498.42 522762.42,3139440.34 522763.82,3139398.29 522772.52,3139380.76 522788.84,3139370.11 522802.51,3139369.09 522819.04,3139374.83 522831.65,3139386.14 522835.55,3139398.65 522833.78,3139500.35 522821.65,3139519.14 522805.35,3139526.17 522789.84,3139525.88 522774.36,3139517.48"/>
    <poly id="218313459" type="unknown" color="51,128,255" fill="1" layer="-1.00" shape="522892.96,3139514.31 522951.11,3139515.38 522951.65,3139486.59 522919.09,3139486.00 522918.83,3139499.90 522893.23,3139499.43 522892.96,3139514.31"/>
    <poly id="218314819" type="unknown" color="51,128,255" fill="1" layer="-1.00" shape="523259.19,3139686.75 523290.39,3139687.37 523290.81,3139666.88 523276.17,3139666.58 523275.99,3139675.07 523259.44,3139674.74 523259.19,3139686.75"/>
    <poly id="218315974" type="unknown" color="51,128,255" fill="1" layer="-1.00" shape="522731.86,3139665.06 522759.73,3139664.75 522759.34,3139629.17 522752.41,3139629.25 522752.36,3139624.09 522739.90,3139624.23 522739.96,3139629.23 522731.46,3139629.32 522731.86,3139665.06"/>