<?xml version="1.0" encoding="UTF-8"?>

<!-- generated on 05/14/17 17:19:11 by SUMO duarouter Version 0.29.0
<?xml version="1.0" encoding="UTF-8"?>

<configuration xmlns:xsi="http://www.w3.org/2001/XMLSchema-instance" xsi:noNamespaceSchemaLocation="http://sumo.dlr.de/xsd/duarouterConfiguration.xsd">

    <input>
        <net-file value="F:\Dev\vanetproject\VANETSim\simulations\_maps\i95highway\i95highway.net.xml"/>
        <trip-files value="trips.trips.xml"/>
    </input>

    <output>
        <output-file value="i95highway300.rou.xml"/>
    </output>

    <processing>
        <ignore-errors value="true"/>
    </processing>

    <time>
        <begin value="1000.0"/>
        <end value="3600.0"/>
    </time>

    <report>
        <no-warnings value="true"/>
        <no-step-log value="true"/>
    </report>

</configuration>
-->

<routes xmlns:xsi="http://www.w3.org/2001/XMLSchema-instance" xsi:noNamespaceSchemaLocation="http://sumo.dlr.de/xsd/routes_file.xsd">
    <vehicle id="0" depart="1000.00">
        <route edges="-10775761#2 -10775761#1 -10775761#0 -10779138#0 158601758#1 128992729 86700213#0 86700213#1 86700213#2 86700213#3 86700211#0 86700211#1 86700211#2 86700211#3 86700211#4 86700211#5 86700211#6 10777275#0 10777275#1 -296360459#13 -296360459#12 -296360459#11 -296360459#10 -296360459#9 -296360459#8 -296360459#7 10775144#1 10775144#2 10775144#3 10775144#4 10775144#5 10775144#6 10775144#7 10775144#8 -10775144#8"/>
    </vehicle>
    <vehicle id="1" depart="1008.00">
        <route edges="-10776794 -10767732#2 -10767732#1 -10767732#0 -10771463#4 -10771463#3 -10771463#2 -10771463#1 -10771463#0 10774793#0 288534959#11 288534959#12 288534959#13 288534959#14 288534965#0 288534965#1 41703037#0 41703037#1 41703037#2 41703037#3 41703037#4 41703037#5 41703037#6 41703037#7 86700210#0 86700210#1 86700210#2 86700210#3 86700212 128992728#0 128992728#1 -10775514#0 10769914#0 10769914#1 10769914#2 10769914#3 10769914#4 10774277#0 10774277#1 10774277#2"/>
    </vehicle>
    <vehicle id="2" depart="1016.00">
        <route edges="-10774632 -10777275#2 -10777275#1 41703037#2 41703037#3 41703037#4 41703037#5 10767264 291271456#2 40343749#1 10766473 301725004 218101654#0 218101654#1 218101815#1"/>
    </vehicle>
    <vehicle id="3" depart="1024.00">
        <route edges="-10776003#1 10776003#1 -10772673#0 288534970 41703037#0 41703037#1 41703037#2 41703037#3 41703037#4 41703037#5 41703037#6 41703037#7 86700210#0 86700210#1 86700210#2 86700210#3 86700212 128992728#0 128992728#1 10775514#1 10775514#2 10775514#3 10778377#0 10778377#1 10778377#2"/>
    </vehicle>
    <vehicle id="5" depart="1040.00">
        <route edges="-228956271#1 -228956271#0 -228956271#3 -228956271#2 133634668 -10774793#2 -296360459#8 -296360459#7 10775144#1 10775144#2 10775144#3 10775144#4 10771929#0 10776565#0"/>
    </vehicle>
    <vehicle id="6" depart="1048.00">
        <route edges="-10769914#5 -10769914#4 -10769914#3 -10769914#2 -10769914#1 -10769914#0 10775514#0 10775514#1 10775514#2 10775514#3 10775514#4 10775514#5 218101020#1"/>
    </vehicle>
    <vehicle id="8" depart="1064.00">
        <route edges="-10775514#2 -10775514#1 -10775514#0 158601758#0 158601758#1 128992729 10768229#1 10768229#2 10768229#3 10768229#4 10768229#5 10768229#6 10775960#0 -10774721#1 -10767936#2 -10767936#1"/>
    </vehicle>
    <vehicle id="9" depart="1072.00">
        <route edges="-10772891#1 10772891#1 -10771781 -10771463#3 -10771463#2 -10771463#1 -10771463#0 10774793#0 288534959#11 288534959#12 288534959#13 288534959#14 288534965#0 288534965#1 41703037#0 41703037#1 41703037#2 41703037#3 41703037#4 41703037#5 41703037#6 41703037#7 86700210#0 86700210#1 86700210#2 86700210#3 10768229#0 10768229#1 10768229#2 10768229#3 10772050#0 228920720#0 228920720#1 228920720#2 -10768521#1 -10778362 -228920720#3"/>
    </vehicle>
    <vehicle id="11" depart="1088.00">
        <route edges="10775346#0 10775346#1 218099092 218099093#3 218099093#4 218099093#5 10775346#3 10775346#4 10775346#5 10775346#6 10775346#7 10770521#0 -10770520 -10775514#6 218101020#1 218101011#0 218101011#1 40343758#1 10767050 301725008#0 301725008#1 301725008#2 86700213#3 86700211#0 86700211#1 86700211#2 86700211#3 86700211#4 86700211#5 86700211#6 86700211#7 86700211#8 81164849#0 81164849#1 128992727#0 128992727#1 128992727#2 128992727#3 10771463#0 10771463#1 10771463#2 10771463#3 10771463#4 10767732#0"/>
    </vehicle>
    <vehicle id="12" depart="1096.00">
        <route edges="10769465 -10768813#0 -10775144#19 -10770840#5 -10770840#4 -10770840#3 -10770840#2 10770840#2"/>
    </vehicle>
    <vehicle id="13" depart="1104.00">
        <route edges="10778469#2 -10776280 -10775514#4 -10775514#3 -10775514#2 -10775514#1 -10775514#0 158601758#0 10779138#0 10775761#0 10775761#1 10775761#2 10775761#3 10768985#1"/>
    </vehicle>
    <vehicle id="14" depart="1112.00">
        <route edges="10772293#1 -10772293#1 -10774793#4 -10774793#3 -10774793#2 -10774793#1 -10774793#0 10771463#0 10771463#1 10771463#2 10767562#0 -10778782#5 -10778782#4 -10778782#3 10770618 -10769806#2 -10769806#1"/>
    </vehicle>
    <vehicle id="15" depart="1120.00">
        <route edges="10770275 -10770275 -10770689#0 -10779138#6 -10779138#5 -10779138#4 -10779138#3 -10779138#2 -10779138#1 -10779138#0 158601758#1 128992729 10768229#1 10768229#2 10768229#3 10772050#0 228920720#0 228920720#1 228920720#2 228920720#3"/>
    </vehicle>
    <vehicle id="18" depart="1144.00">
        <route edges="10776195 -10776195 -10769025#3 -10769025#2 -10769025#1 -10769025#0 -10774277#1 -10774277#0 -10769914#4 -10769914#3 -10769914#2 -10769914#1 -10769914#0 158601758#0 158601758#1 128992729 86700213#0 86700213#1 86700213#2 86700213#3 86700211#0 86700211#1 86700211#2 86700211#3 86700211#4 86700211#5 86700211#6 86700211#7 86700211#8 81164849#0 81164849#1 128992727#0 128992727#1 128992727#2 128992727#3 10771463#0 10771463#1 10771463#2 10771463#3 10771463#4 10771463#5"/>
    </vehicle>
    <vehicle id="19" depart="1152.00">
        <route edges="10777713 10778782#4 10778782#5 -10767562#0 -10771463#2 -10771463#1 -10771463#0 10774793#0 288534959#11 288534959#12 288534959#13 288534959#14 288534965#0 288534965#1 41703037#0 41703037#1 41703037#2 41703037#3 41703037#4 41703037#5 41703037#6 41703037#7 86700210#0 86700210#1 86700210#2 86700210#3 10768229#0 10768229#1 10770765#0 10770765#1 10770765#2 10770765#3 10770765#4 10770765#5 10770765#6 -10770765#6"/>
    </vehicle>
    <vehicle id="20" depart="1160.00">
        <route edges="86700211#0 86700211#1 86700211#2 86700211#3 86700211#4 86700211#5 86700211#6 10777275#0 10777275#1 10777275#2 10777275#3 10777275#4 10777275#5 10777275#6"/>
    </vehicle>
    <vehicle id="21" depart="1168.00">
        <route edges="-10779131#0 10779131#0 86700211#5 86700211#6 86700211#7 86700211#8 10772673#0 10772673#1 10772673#2 10772673#3 10772673#4 -10768941#1 10768941#1"/>
    </vehicle>
    <vehicle id="22" depart="1176.00">
        <route edges="-10774721#1 10774721#1 -10775960#0 -10768229#6 -10768229#5 -10768229#4 -10768229#3 -10768229#2 -10768229#1 -10768229#0 86700212 128992728#0 128992728#1 10775514#1 10775514#2 10775514#3 10775514#4 10775514#5 10775514#6 10770520 -10770521#0 -10775346#7 -10775346#6 -10775346#5 -10775346#4 -10775346#3 -218099093#5 -218099093#4 -218099093#3 -218099092 10775346#2"/>
    </vehicle>
    <vehicle id="23" depart="1184.00">
        <route edges="-10770765#1 -10770765#0 -10768229#1 86700213#0 86700213#1 86700213#2 86700213#3 10767263 291271455 86700210#0 10767054#0"/>
    </vehicle>
    <vehicle id="24" depart="1192.00">
        <route edges="-10777400#0 -10767342#1 -10775761#4 -10775761#3 -10775761#2 -10775761#1 -10775761#0 10779138#1 10775909#0 10775909#1 -10769914#0 10775514#0 10775514#1 10775514#2 10775514#3 10778377#0 -10777482#1 -10778154#1 -10778154#0 10778154#0"/>
    </vehicle>
    <vehicle id="25" depart="1200.00">
        <route edges="10770765#1 -10770765#1 -10770765#0 -10768229#1 86700213#0 86700213#1 86700213#2 86700213#3 86700211#0 86700211#1 86700211#2 86700211#3 86700211#4 86700211#5 86700211#6 10777275#0 10777275#1 -296360459#13 -296360459#12 -296360459#11 -296360459#10 -296360459#9 -296360459#8 -296360459#7 10775144#1 10775144#2 10775144#3 10775144#4 10775144#5 10775144#6 10775144#7 -10771929#4 -10771929#3 -10771929#2 10771929#2"/>
    </vehicle>
    <vehicle id="26" depart="1208.00">
        <route edges="-10768235#4 -10768235#3 -10768235#2 10769202 -10775144#10 -10775144#9 -10775144#8 -10775144#7 -10775144#6 -10775144#5 -10775144#4 -10775144#3 -10775144#2 -10775144#1 296360459#7 296360459#8 296360459#9 296360459#10 296360459#11 296360459#12 296360459#13 -10777275#1 41703037#2 41703037#3 41703037#4 41703037#5 10767264 291271456#2 40343749#1 10766473 301725004 218101654#0 218101654#1 218101815#1 218101815#2 51738140#0 51738140#1 51738140#2 51738140#3 10770520 -10770521#0 -10775346#7 -10775346#6 -10775346#5 -10775346#4 -10775346#3 -218099093#5 -218099093#4 -218099093#3 -218099092"/>
    </vehicle>
    <vehicle id="27" depart="1216.00">
        <route edges="10775346#6 10775346#7 10770521#0 -10770520 -10775514#6 218101020#1 218101011#0 218101011#1 40343758#1 10767050 301725008#0 301725008#1 301725008#2 86700213#3 86700211#0 86700211#1 86700211#2 86700211#3 86700211#4 -10779131#0 10779131#0"/>
    </vehicle>
    <vehicle id="28" depart="1224.00">
        <route edges="-10770633#1 -10770633#0 10779509#1 10769963#1 -10770852#1 10769516#0 10777138#0 10769015 10771463#2 10767562#0 -10767562#0"/>
    </vehicle>
    <vehicle id="29" depart="1232.00">
        <route edges="10779960#1 -10767562#1 -10767562#0 -10771463#2 -10771463#1 -10771463#0 10774793#0 288534959#11 288534959#12 288534959#13 288534959#14 288534965#0 288534965#1 41703037#0 41703037#1 41703037#2 41703037#3 41703037#4 41703037#5 41703037#6 41703037#7 86700210#0 86700210#1 86700210#2 86700210#3 86700212 128992728#0 128992728#1 10775514#1 10775514#2 10775514#3"/>
    </vehicle>
    <vehicle id="30" depart="1240.00">
        <route edges="-10775346#7 10775346#7 10770521#0 -10770520 -10775514#6 -10775514#5 -10775514#4 -10775514#3 -10775514#2 -10775514#1 158601756#0 158601756#1 158601756#2 158601756#3 158601756#4 -86697327#2 86697327#0"/>
    </vehicle>
    <vehicle id="31" depart="1248.00">
        <route edges="-10771781 -10771463#3 -10771463#2 -10771463#1 -10771463#0 10774793#0 288534959#11 288534959#12 288534959#13 288534959#14 288534965#0 288534965#1 41703037#0 41703037#1 41703037#2 41703037#3 41703037#4 41703037#5 41703037#6 41703037#7 86700210#0 10767054#0 10767054#1 86700213#2"/>
    </vehicle>
    <vehicle id="32" depart="1256.00">
        <route edges="-128992809 128992809 218101027#0 218101027#1 218101027#2 218101027#3 218101815#0 218101815#1 218101031 291271454 218101016 218101011#1 40343758#1 10767050 10767053 86700210#3 10768229#0 10768229#1 10768229#2 10768229#3 10772050#0"/>
    </vehicle>
    <vehicle id="33" depart="1264.00">
        <route edges="-10775960#1 -10775960#0 -10768229#6 -10768229#5 -228920726 228920720#1"/>
    </vehicle>
    <vehicle id="34" depart="1272.00">
        <route edges="-10777138#1 10769015 -10771463#1 -10771463#0 10774793#0 288534959#11 288534959#12 288534959#13 288534959#14 288534965#0 288534965#1 41703037#0 41703037#1 41703037#2 41703037#3 41703037#4 41703037#5 10767264 291271456#2 40343749#1 10766473 10766552 218101656#1 218101656#2 -128992809 -10773875#1 10773875#1"/>
    </vehicle>
    <vehicle id="35" depart="1280.00">
        <route edges="10772662#0 -10772662#0 -10778469#3 -10776280 -10775514#4 -10775514#3 -10775514#2 -10775514#1 -10775514#0 158601758#0 158601758#1 128992729 86700213#0 86700213#1 86700213#2 86700213#3 86700211#0 86700211#1 86700211#2 86700211#3 86700211#4 86700211#5 86700211#6 86700211#7 86700211#8 81164849#0 81164849#1 128992727#0 128992727#1 128992727#2 128992727#3 10771463#0 10771463#1 10771463#2 10771463#3 10771463#4 10767732#0 10767732#1 10767732#2 10776794"/>
    </vehicle>
    <vehicle id="36" depart="1288.00">
        <route edges="288534959#3 288534959#4 288534959#5 288534959#6 288534959#7 288534959#8 288534959#9 288534959#10 288534959#11 288534959#12 288534959#13 288534959#14 288534965#0 288534965#1 -288534970 10772673#0 10772673#1 10772673#2 10772673#3 10772673#4"/>
    </vehicle>
    <vehicle id="37" depart="1296.00">
        <route edges="-10768229#3 -10768229#2 -10768229#1 86700213#0 86700213#1 86700213#2 86700213#3 86700211#0 86700211#1 86700211#2 86700211#3 86700211#4 86700211#5 86700211#6 86700211#7 86700211#8 81164849#0 81164849#1 128992727#0 128992727#1 128992727#2 288534937"/>
    </vehicle>
    <vehicle id="38" depart="1304.00">
        <route edges="-10767562#1 -10767562#0 -10771463#2 -10771463#1 -10771463#0 10774793#0 288534959#11 288534959#12 288534959#13 288534959#14 288534965#0 288534965#1 41703037#0 41703037#1 41703037#2 41703037#3 10779131#0 10779131#1"/>
    </vehicle>
    <vehicle id="39" depart="1312.00">
        <route edges="10779960#1 -10767562#1 -10767562#0 -10771463#2 -10771463#1 -10771463#0 10774793#0 288534959#11 288534959#12 288534959#13 288534959#14 288534965#0 288534965#1 41703037#0 41703037#1 41703037#2 41703037#3 41703037#4 41703037#5 10767264"/>
    </vehicle>
    <vehicle id="40" depart="1320.00">
        <route edges="-10768521#1 10768521#1 -228920720#2 -228920720#1 -228920720#0 -10772050#0 -10768229#3 -10768229#2 -10768229#1 -10768229#0 86700212 128992728#0 86700219 10779138#0 10779138#1 10779138#2 10779138#3 10779138#4 10779138#5 10779138#6 10770689#0 10770275 10769488#3 10777092#0 -10777092#0"/>
    </vehicle>
    <vehicle id="41" depart="1328.00">
        <route edges="10769488#3 -10769488#3 -10770275 -10770689#0 -10779138#6 -10779138#5 -10779138#4 -10779138#3 -10779138#2 -10779138#1 -10779138#0 158601758#1 128992729 86700213#0 86700213#1 86700213#2 86700213#3 86700211#0 86700211#1 86700211#2 86700211#3 86700211#4 86700211#5 86700211#6 10777275#0 10777275#1 -296360459#13 -296360459#12 -296360459#11 -296360459#10 -296360459#9 -296360459#8 -296360459#7 10775144#1 10775144#2 10775144#3 10775144#4 10775144#5 10775144#6 10775144#7 10775144#8 10775144#9 10775144#10 10775144#11 10775144#12 10775144#13 10775144#14 10775144#15 10775144#16 10779146#0 -218327575#1"/>
    </vehicle>
    <vehicle id="42" depart="1336.00">
        <route edges="-10779138#4 -10779138#3 -10779138#2 10775909#0 10775909#1 -10769914#0 10775514#0 10775514#1 10775514#2 10775514#3 10775514#4 10776280 -10778469#2 -10778469#1 10779380"/>
    </vehicle>
    <vehicle id="43" depart="1344.00">
        <route edges="-10769661#1 288534959#3 288534959#4 288534959#5 -10771105#0 10775144#0 -10775144#0"/>
    </vehicle>
    <vehicle id="44" depart="1352.00">
        <route edges="296360459#1 296360459#2 296360459#3 296360459#4 296360459#5 296360459#6 10775144#1 10775144#2 10775144#3 10775144#4 10775144#5 10775144#6 -10769624#1"/>
    </vehicle>
    <vehicle id="45" depart="1360.00">
        <route edges="10779551#1 10777482#0 10777482#1 -10778377#0 -10775514#3 -10775514#2 -10775514#1 -10775514#0 158601758#0 158601758#1 128992729 86700213#0 86700213#1 86700213#2 86700213#3 86700211#0 86700211#1 86700211#2 86700211#3 86700211#4 86700211#5 86700211#6 10777275#0 10777275#1 -296360459#13 -296360459#12 -296360459#11 -296360459#10 -296360459#9 -296360459#8 -296360459#7 10775144#1 10775144#2 10775144#3 10775144#4 10775144#5 10775144#6 10775144#7 10775144#8 10775144#9 10775144#10 10775144#11 10775144#12 10775144#13 10775144#14 10775144#15 10775144#16 10775144#17 10775144#18 -10770840#5 10770840#5"/>
    </vehicle>
    <vehicle id="47" depart="1376.00">
        <route edges="-10774793#1 288534959#11 288534959#12 288534959#13 288534959#14 288534965#0 288534965#1 41703037#0 41703037#1 41703037#2 41703037#3 41703037#4 41703037#5 41703037#6 41703037#7 86700210#0 86700210#1 86700210#2 86700210#3 10768229#0 86700213#0 86700213#1"/>
    </vehicle>
    <vehicle id="48" depart="1384.00">
        <route edges="-10777113#0 -10772153#1 -10775761#0 -10779138#0 158601758#1 128992729 86700213#0 86700213#1 86700213#2 86700213#3 86700211#0 86700211#1 86700211#2 86700211#3 86700211#4 86700211#5 86700211#6 86700211#7 86700211#8 288534970 -288534970"/>
    </vehicle>
    <vehicle id="49" depart="1392.00">
        <route edges="-296360459#12 -296360459#11 -296360459#10 -296360459#9 -296360459#8 -296360459#7 -296360459#6 -296360459#5 -296360459#4 -296360459#3 -296360459#2"/>
    </vehicle>
    <vehicle id="50" depart="1400.00">
        <route edges="158601756#2 158601756#3 10779743#1 86697277#2 86697277#3 86697277#4 10775514#0 10775514#1 10775514#2 10775514#3 10778377#0 10778377#1 -10778377#1"/>
    </vehicle>
    <vehicle id="51" depart="1408.00">
        <route edges="-10771106 -10774565#0 -10775515#3 -10775515#2 -10775515#1 218101027#1 218101027#2 218101027#3 218101815#0 218101815#1 218101031 291271454 218101016 218101011#1 40343758#1 10767050 301725008#0 301725008#1 301725008#2 86700213#3 86700211#0 86700211#1 86700211#2 86700211#3 86700211#4 86700211#5 86700211#6 10777275#0 10777275#1 -296360459#13 86700215#0"/>
    </vehicle>
    <vehicle id="52" depart="1416.00">
        <route edges="-10769629#1 -10769629#0 -10768965#0 -10768229#7 -10768229#6 -10768229#5 -10768229#4 -10768229#3 -10768229#2 -10768229#1 86700213#0 86700213#1 86700213#2 86700213#3 86700211#0 86700211#1 86700211#2 86700211#3 86700211#4 86700211#5 86700211#6 86700211#7 86700211#8 10772673#0 -10776003#1 10770440"/>
    </vehicle>
    <vehicle id="53" depart="1424.00">
        <route edges="10768941#1 -10772673#4 -10772673#3 -10772673#2 -10772673#1 -10772673#0 81164849#0 81164849#1 128992727#0 128992727#1 128992727#2 128992727#3 128992727#4 128992727#5 128992727#6 128992727#7 128992727#8 -10771105#1 -10771105#0 10775144#0"/>
    </vehicle>
    <vehicle id="54" depart="1432.00">
        <route edges="296360459#6 -10775144#0 10771105#0 288534959#6 288534959#7 288534959#8 288534959#9 288534959#10 288534959#11 288534959#12 288534959#13 288534959#14 288534965#0"/>
    </vehicle>
    <vehicle id="55" depart="1440.00">
        <route edges="-10768229#7 -10768229#6 -10768229#5 -10768229#4 -10768229#3 -10768229#2 -10768229#1 86700213#0 86700213#1 86700213#2 86700213#3 86700211#0 86700211#1 86700211#2 86700211#3 86700211#4 86700211#5 -10773762#0 10773762#0"/>
    </vehicle>
    <vehicle id="56" depart="1448.00">
        <route edges="-10768521#1 10768521#1 -228920720#2 -228920720#1 -228920720#0 -10772050#0 -10768229#3 -10768229#2 -10768229#1 -10768229#0 86700212 128992728#0 86700219 10779138#0 10779138#1 10779138#2 10779138#3 10779138#4 10779138#5 10779138#6 10779138#7 -10769488#1 10775627#0 10775627#1 10779639#1"/>
    </vehicle>
    <vehicle id="57" depart="1456.00">
        <route edges="10766484 301725006#0 301725006#1 291271455 86700210#0 86700210#1 86700210#2 86700210#3 86700212 128992728#0 128992728#1 10775514#1 10775514#2 10775514#3 10778377#0 -10777482#1 -10777482#0"/>
    </vehicle>
    <vehicle id="58" depart="1464.00">
        <route edges="-10777695 10777695 -10775761#1 -10775761#0 10779138#1 10775909#0 10775909#1 -10769914#0 10775514#0 10775514#1 10775514#2 10775514#3 10778377#0 -10777482#1 -10777482#0 -10779551#1"/>
    </vehicle>
    <vehicle id="59" depart="1472.00">
        <route edges="10769067#2 10769067#3 10768235#0 10768235#1 10769202 -10775144#10 -10775144#9 -10775144#8 -10775144#7 -10775144#6 -10775144#5 -10775144#4 -10775144#3 -10775144#2 -10775144#1 296360459#7 296360459#8 296360459#9 296360459#10 296360459#11 296360459#12 296360459#13 -10777275#1 41703037#2 41703037#3 41703037#4 41703037#5 10767264 291271456#2 40343749#1 10766473 301725004 218101654#0 218101654#1 218101815#1 218101815#2 51738140#0 51738140#1 51738140#2 51738140#3 51738140#4 51738140#5 51738140#6 128992807 158601947#0 218103101#0 -218103101#0"/>
    </vehicle>
    <vehicle id="60" depart="1480.00">
        <route edges="-10778440#1 -10778440#0 -10776565#0 -10771929#0 -10775144#4 -10775144#3 -10775144#2 -10775144#1 296360459#7 296360459#8 296360459#9 296360459#10 296360459#11 296360459#12 296360459#13 -10777275#1 41703037#2 41703037#3 41703037#4 41703037#5 41703037#6 41703037#7 86700210#0 86700210#1 86700210#2 86700210#3 10768229#0 10768229#1 10768229#2 10768229#3 10768229#4 10768229#5 10768229#6 10775960#0 -10774721#1 -10774721#0 10774721#0"/>
    </vehicle>
    <vehicle id="61" depart="1488.00">
        <route edges="-10775761#2 -10775761#1 -10775761#0 10779138#1 10775909#0 10775909#1 -10769914#0 10775514#0 158601756#0 158601756#1 158601756#2 -10767931 10780228#1"/>
    </vehicle>
    <vehicle id="62" depart="1496.00">
        <route edges="-10770840#5 10770840#5 -10775144#18 -10775144#17 -10775144#16 -10775144#15 -10775144#14 -10775144#13 -10775144#12 -10775144#11 -10775144#10 -10775144#9 -10775144#8 -10775144#7 -10775144#6 -10775144#5 -10775144#4 -10775144#3 -10775144#2 -10775144#1 296360459#7 296360459#8 296360459#9 296360459#10 296360459#11 296360459#12 296360459#13 -10777275#1 41703037#2 41703037#3 41703037#4 41703037#5 41703037#6 41703037#7 86700210#0 86700210#1 86700210#2 86700210#3 10768229#0 10768229#1 10770765#0 10770765#1 10770765#2 10770765#3 10770765#4 10770765#5 10770765#6 -10770765#6"/>
    </vehicle>
    <vehicle id="63" depart="1504.00">
        <route edges="-10771463#1 -10771463#0 10774793#0 288534959#11 288534959#12 288534959#13 288534959#14 288534965#0 288534965#1 41703037#0 41703037#1 41703037#2 41703037#3 41703037#4 41703037#5 41703037#6 41703037#7 86700210#0 86700210#1 86700210#2 86700210#3 86700212 128992728#0 128992728#1 158601756#0 158601756#1 158601756#2 158601756#3 158601756#4 -86697327#2 86697327#0"/>
    </vehicle>
    <vehicle id="64" depart="1512.00">
        <route edges="-10777275#9 -10777275#8 -10777275#7 -10777275#6 -10777275#5 -10777275#4 -10777275#3 -10777275#2 -296360459#13 -296360459#12 -296360459#11 -296360459#10 -296360459#9 -296360459#8 -296360459#7 10775144#1 10775144#2 10775144#3 10775144#4 10775144#5 10775144#6 10775144#7 10775144#8 -10775144#8"/>
    </vehicle>
    <vehicle id="66" depart="1528.00">
        <route edges="158601758#1 128992729 86700213#0 86700213#1 86700213#2 86700213#3 86700211#0 86700211#1 86700211#2 86700211#3 86700211#4 86700211#5 86700211#6 10777275#0 10777275#1 -296360459#13 -296360459#12 -296360459#11 -296360459#10 -296360459#9 10774793#2 10774793#3"/>
    </vehicle>
    <vehicle id="67" depart="1536.00">
        <route edges="-10775514#5 -10775514#4 -10775514#3 -10775514#2 -10775514#1 -10775514#0 158601758#0 158601758#1 128992729 86700213#0 86700213#1 86700213#2 86700213#3 86700211#0 86700211#1 86700211#2 86700211#3 86700211#4 86700211#5 86700211#6 10777275#0 10777275#1 -296360459#13 -296360459#12 -296360459#11 -296360459#10 -296360459#9 -296360459#8 -296360459#7 10775144#1 10775144#2 10775144#3 10775144#4 10775144#5 10775144#6 10775144#7 10775144#8 10775144#9 10775689 -10772069#0"/>
    </vehicle>
    <vehicle id="68" depart="1544.00">
        <route edges="10770840#3 10770840#4 10770840#5 -10775144#18 -10775144#17 -10775144#16 -10775144#15 -10775144#14 -10775144#13 -10775144#12 -10775144#11 -10775144#10 -10775144#9 -10775144#8 -10775144#7 -10775144#6 -10775144#5 -10775144#4 -10775144#3 -10775144#2 -10775144#1 296360459#7 296360459#8 296360459#9 296360459#10 296360459#11 296360459#12 296360459#13 -10777275#1 41703037#2 41703037#3 41703037#4 41703037#5 41703037#6 41703037#7 86700210#0 86700210#1 86700210#2 86700210#3 86700212 128992728#0 86700219 10779138#0 10779138#1 10779138#2 10779138#3 10779138#4 10779138#5"/>
    </vehicle>
    <vehicle id="69" depart="1552.00">
        <route edges="-10767732#5 -10767732#4 -10767732#3 -10767732#2 -10767732#1 -10767732#0 -10771463#4 -10771463#3 -10771463#2 -10771463#1 -10771463#0 10774793#0 288534959#11 288534959#12 288534959#13 288534959#14 288534965#0 288534965#1 41703037#0 41703037#1 41703037#2 41703037#3 41703037#4 41703037#5 41703037#6 41703037#7 86700210#0 86700210#1 86700210#2 86700210#3 86700212 128992728#0 128992728#1"/>
    </vehicle>
    <vehicle id="71" depart="1568.00">
        <route edges="10775909#0 -10775909#0 -10779138#1 -10779138#0 158601758#1 128992729 86700213#0 86700213#1 86700213#2 86700213#3 86700211#0 86700211#1 86700211#2 86700211#3 86700211#4 86700211#5 86700211#6 10777275#0 10777275#1 -296360459#13 -296360459#12 -296360459#11 -296360459#10 -296360459#9 -296360459#8 -296360459#7 10775144#1 10775144#2 10775144#3 10775144#4 10775144#5 10775144#6 10775144#7 -10775144#7"/>
    </vehicle>
    <vehicle id="72" depart="1576.00">
        <route edges="-10774565#0 -10775515#3 -10775515#2 -10775515#1 218101027#1 218101027#2 218101027#3 218101815#0 218101815#1 218101031 291271454"/>
    </vehicle>
    <vehicle id="74" depart="1592.00">
        <route edges="-10778154#1 10778154#1 10777482#1 -10778377#0 -10775514#3 -10775514#2 -10775514#1 -10775514#0 158601758#0 158601758#1 128992729 86700213#0 86700213#1 86700213#2 86700213#3 86700211#0 86700211#1 86700211#2 86700211#3 86700211#4 86700211#5 86700211#6 86700211#7 86700211#8 81164849#0 81164849#1 128992727#0 128992727#1 128992727#2 128992727#3 10771463#0 10771463#1 10771463#2 10767562#0 -10767562#0"/>
    </vehicle>
    <vehicle id="75" depart="1600.00">
        <route edges="-10768521#0 10768521#0 10768521#1 -228920720#2 -228920720#1 -228920720#0 -10772050#0 -10768229#3 -10768229#2 -10768229#1 -10768229#0 86700212 128992728#0 128992728#1 158601756#0 158601756#1"/>
    </vehicle>
    <vehicle id="76" depart="1608.00">
        <route edges="-86700215#0 296360459#13 -10777275#1 41703037#2 41703037#3 41703037#4 41703037#5 41703037#6 41703037#7 86700210#0 86700210#1 86700210#2 86700210#3 86700212 128992728#0 128992728#1 10775514#1 10775514#2 10775514#3 10778377#0 -10777482#1 -10778154#1 -10778154#0 -10777950#0"/>
    </vehicle>
    <vehicle id="77" depart="1616.00">
        <route edges="-10774277#2 -10774277#1 -10774277#0 -10769914#4 -10769914#3 -10769914#2 -10769914#1 -10769914#0 158601758#0 158601758#1 128992729 86700213#0 86700213#1 86700213#2 86700213#3 86700211#0 86700211#1 86700211#2 86700211#3 86700211#4 86700211#5 86700211#6 86700211#7 86700211#8 81164849#0 81164849#1 128992727#0 128992727#1 128992727#2 128992727#3 128992727#4 128992727#5 128992727#6 128992727#7 128992727#8 10771105#2 10771105#3 -10768966#1 10768966#1"/>
    </vehicle>
    <vehicle id="78" depart="1624.00">
        <route edges="-10774683 -10775144#12 -10775144#11 -10775144#10 -10775144#9 -10775144#8 -10775144#7 -10775144#6 -10775144#5 -10775144#4 -10775144#3 -10775144#2 -10775144#1 296360459#7 296360459#8 296360459#9 296360459#10 296360459#11 296360459#12 296360459#13 -10777275#1 41703037#2 41703037#3 41703037#4 41703037#5 10767264 291271456#2 40343749#1 10766473 301725004 218101654#0 218101654#1 218101815#1 218101815#2 51738140#0 51738140#1 51738140#2 51738140#3 10770520 -10770521#0 -10775346#7 -10775346#6 -10775346#5 -10775346#4 -10775346#3 -218099093#5 -218099093#4 -218099093#3 -218099093#2"/>
    </vehicle>
    <vehicle id="79" depart="1632.00">
        <route edges="-296360459#4 296360459#4 296360459#5 296360459#6 296360459#7 296360459#8 296360459#9 296360459#10 296360459#11 296360459#12 296360459#13 -10777275#1 41703037#2 41703037#3 41703037#4 41703037#5 41703037#6 41703037#7 86700210#0 86700210#1 86700210#2 86700210#3 10768229#0 10768229#1 10768229#2 10768229#3 10772050#0 228920720#0 228920720#1 228920720#2 -228920720#2"/>
    </vehicle>
    <vehicle id="80" depart="1640.00">
        <route edges="10767562#0 -10767562#0 -10771463#2 -10771463#1 -10771463#0 128992727#4 128992727#5 128992727#6 128992727#7 128992727#8 -10771105#1 -10771105#0 10775144#0 10775144#1 10775144#2 10775144#3 10775144#4 10775144#5 10775144#6 10775144#7 -10771929#4 -10771929#3 -10771929#2 -10771929#1"/>
    </vehicle>
    <vehicle id="81" depart="1648.00">
        <route edges="10775144#19 -10775144#19 -10775144#18 -10775144#17 -10775144#16 -10775144#15 -10775144#14 -10775144#13 -10775144#12 -10775144#11 -10775144#10 -10775144#9 -10775144#8 -10775144#7 -10775144#6 -10775144#5 -10775144#4 -10775144#3 -10775144#2 -10775144#1 296360459#7 296360459#8 296360459#9 296360459#10 296360459#11 296360459#12 296360459#13 -10777275#1 41703037#2 41703037#3 41703037#4 41703037#5 10767264 291271456#2 40343749#1 10766473 301725004 218101654#0 218101654#1 218101815#1 218101815#2 51738140#0 51738140#1 51738140#2 51738140#3 -10775514#6 10775514#6"/>
    </vehicle>
    <vehicle id="82" depart="1656.00">
        <route edges="-10771105#1 288534959#6 288534959#7 288534959#8 288534959#9 -288534956 128992727#5 128992727#6 288534955"/>
    </vehicle>
    <vehicle id="83" depart="1664.00">
        <route edges="-10772662#1 -10772662#0 -10778469#3 -10776280 -10775514#4 -10775514#3 -10775514#2 -10775514#1 -10775514#0 158601758#0 158601758#1 128992729 86700213#0 86700213#1 86700213#2 86700213#3 86700211#0 86700211#1 86700211#2 86700211#3 86700211#4 86700211#5 86700211#6 10777275#0 10777275#1 10777275#2 10777275#3 -10772293#5 10772293#5"/>
    </vehicle>
    <vehicle id="84" depart="1672.00">
        <route edges="-10776193#0 10776193#0 -10776195 -10769025#3 -10769025#2 -10769025#1 -10769025#0 -10774277#1 -10774277#0 -10769914#4 -10769914#3 -10769914#2 -10769914#1 -10769914#0 158601758#0 10779138#0"/>
    </vehicle>
    <vehicle id="86" depart="1688.00">
        <route edges="-10774277#1 -10774277#0 -10769914#4 -10769914#3 -10769914#2 -10769914#1 -10769914#0 158601758#0 158601758#1 128992729 86700213#0 86700213#1 86700213#2 86700213#3 86700211#0 86700211#1 86700211#2 86700211#3 86700211#4 86700211#5 86700211#6 10777275#0 10777275#1 -296360459#13 -296360459#12 -296360459#11 -296360459#10"/>
    </vehicle>
    <vehicle id="88" depart="1704.00">