<?xml version="1.0" encoding="UTF-8"?>

<!-- generated on 04/03/16 16:05:48 by SUMO duarouter Version 0.19.0
<?xml version="1.0" encoding="UTF-8"?>

<configuration xmlns:xsi="http://www.w3.org/2001/XMLSchema-instance" xsi:noNamespaceSchemaLocation="http://sumo-sim.org/xsd/duarouterConfiguration.xsd">

    <input>
        <net-file value="..\Maps\i95highway.net.xml"/>
        <trip-files value="trips.trips.xml"/>
    </input>

    <output>
        <output-file value="i95highway100.rou.xml"/>
    </output>

    <processing>
        <ignore-errors value="true"/>
    </processing>

    <time>
        <begin value="0"/>
        <end value="100.0"/>
    </time>

</configuration>
-->

<routes xmlns:xsi="http://www.w3.org/2001/XMLSchema-instance" xsi:noNamespaceSchemaLocation="http://sumo-sim.org/xsd/routes_file.xsd">
    <vehicle id="0" depart="0.00">
        <route edges="-10770883 10772293#3 10772293#4 10772293#5 -10777275#3 -10777275#2 -10777275#1 41703037#2 41703037#3 41703037#4 41703037#5 10767264 291271456#2 40343749#1 10766473 301725004 218101654#0 218101654#1 218101815#1 218101815#2"/>
    </vehicle>
    <vehicle id="1" depart="1.00">
        <route edges="10768813#2 -10768813#2 -10768813#1 -10768813#0 -10775144#19 -10775144#18 -10775144#17 -10775144#16 -10775144#15 -10775144#14 -10775144#13 -10775144#12 -10775144#11 -10775144#10 -10775144#9 -10775144#8 -10775144#7 -10775144#6 -10775144#5 -10775144#4 -10775144#3 -10775144#2 -10775144#1 296360459#7 296360459#8 296360459#9 296360459#10 296360459#11 296360459#12 296360459#13 -10777275#1 41703037#2 41703037#3 41703037#4 41703037#5 41703037#6 41703037#7 86700210#0 86700210#1 86700210#2 86700210#3 10768229#0 10768229#1 10768229#2 10768229#3 10768229#4 10768229#5 10768229#6 10768229#7 10768965#0 10769629#0 -10777919"/>
    </vehicle>
    <vehicle id="2" depart="2.00">
        <route edges="218099711#1 -218099711#1 -218099711#0 51738140#6 218101020#0 218101020#1 218101020#2 218101024#0 218101024#1 218101024#2 218101656#0 218101656#1 10775515#0 10775515#1 10775515#2 10771657 -10771657"/>
    </vehicle>
    <vehicle id="3" depart="3.00">
        <route edges="218101815#1 218101031 291271454 218101016 218101011#1 40343758#1 10767050 301725008#0 301725008#1 301725008#2 86700213#3 86700211#0 86700211#1 86700211#2 86700211#3 86700211#4 86700211#5 86700211#6 10777275#0 10777275#1 -296360459#13 -296360459#12 -296360459#11 -296360459#10 -296360459#9 -296360459#8 -296360459#7 -296360459#6 -296360459#5 -296360459#4 296360459#4"/>
    </vehicle>
    <vehicle id="4" depart="4.00">
        <route edges="-158601947#1 -158601947#0 -128992807 218101020#0 218101020#1 218101011#0 218101011#1 40343758#1 10767050 301725008#0 301725008#1 301725008#2 86700213#3 86700211#0 86700211#1 86700211#2 86700211#3 86700211#4 86700211#5 86700211#6 10777275#0 10777275#1 -296360459#13 -296360459#12 -296360459#11 -296360459#10 -296360459#9 -296360459#8 -296360459#7 10775144#1 10775144#2 10775144#3 10775144#4 10775144#5 10775144#6 10775144#7 10775144#8 10775144#9 10775144#10 10775144#11 10775144#12 10775144#13 10775144#14 10775144#15 10775144#16 10775144#17 10775144#18 -10770840#5 -10770840#4 -10770840#3 -10770840#2 -10770840#1 218304778#0 -218304768#2 -218304768#1 -218304774#2 -218304774#1"/>
    </vehicle>
    <vehicle id="5" depart="5.00">
        <route edges="-10776423 10775346#4 10775346#5 10775346#6 10775346#7 10770521#0 -10770520 -10775514#6 218101020#1 218101011#0 218101011#1 40343758#1 10767050 301725008#0 301725008#1 301725008#2 86700213#3 86700211#0 86700211#1 86700211#2 86700211#3 86700211#4 86700211#5 86700211#6 10777275#0 10777275#1 -296360459#13 -296360459#12 -296360459#11 -296360459#10 -296360459#9 -296360459#8 -296360459#7 10775144#1 10775144#2 10775144#3 10775144#4 10775144#5 10775144#6 10775144#7 10775144#8 10775144#9 -10775144#9"/>
    </vehicle>
    <vehicle id="6" depart="6.00">
        <route edges="218304768#2 -218304768#2 -218304768#1 -218304774#2 -218304774#1 -218304774#0 218304770#2 296777330"/>
    </vehicle>
    <vehicle id="8" depart="8.00">
        <route edges="218101033#1 218101033#2 51738140#3 -10775514#6 218101020#1 218101011#0 218101011#1 40343758#1 10767050 301725008#0 301725008#1 301725008#2 86700213#3 86700211#0 86700211#1 86700211#2 86700211#3 86700211#4 86700211#5 86700211#6 10777275#0 10777275#1 10777275#2 10777275#3 -10772293#5 -10772293#4 -10772293#3 -10772293#2 -10772293#1 -10772293#0 10772293#0"/>
    </vehicle>
    <vehicle id="9" depart="9.00">
        <route edges="10771463#4 -10771463#4 -10771463#3 -10771463#2 -10771463#1 -10771463#0 10774793#0 288534959#11 288534959#12 288534959#13 288534959#14 288534965#0 288534965#1 41703037#0 41703037#1 41703037#2 41703037#3 41703037#4 -10775757#3 -10775757#2 218541233#0 218541233#1 218541233#2 218541233#3 218541233#4 218541233#5 218541233#6 218541233#7 218541233#8 218541233#9 218541233#10 -218541233#10"/>
    </vehicle>
    <vehicle id="11" depart="11.00">
        <route edges="-10770840#0 10770840#0 10770840#1 10770840#2 10770840#3 10770840#4 10770840#5 -10775144#18 -10775144#17 -10775144#16 -10775144#15 -10775144#14 -10775144#13 -10775144#12 -10775144#11 -10775144#10 -10775144#9 -10775144#8 -10775144#7 -10775144#6 -10775144#5 -10775144#4 -10775144#3 -10775144#2 -10775144#1 296360459#7 296360459#8 296360459#9 296360459#10 296360459#11 296360459#12 86700215#0 -86700215#0"/>
    </vehicle>
    <vehicle id="12" depart="12.00">
        <route edges="228956271#1 133634668 -10774793#2 -296360459#8 -296360459#7 -296360459#6 -296360459#5 -296360459#4 -296360459#3"/>
    </vehicle>
    <vehicle id="13" depart="13.00">
        <route edges="10775761#4 -10775761#4 -10775761#3 -10775761#2 -10775761#1 -10775761#0 -10779138#0 158601758#1 128992729 86700213#0 86700213#1 86700213#2 86700213#3 86700211#0 86700211#1 86700211#2 86700211#3 86700211#4 86700211#5 86700211#6 86700211#7 86700211#8 81164849#0 81164849#1 128992727#0 128992727#1 128992727#2 128992727#3 10771463#0 10771463#1 10771463#2 10767562#0 -10778782#5 -10778782#4 -10778782#3 10770618 -10769806#2 -10769806#1"/>
    </vehicle>
    <vehicle id="14" depart="14.00">
        <route edges="86700215#1 -86700215#1 41703037#1 41703037#2 41703037#3 41703037#4 41703037#5 41703037#6 41703037#7 86700210#0 86700210#1 86700210#2 86700210#3 86700212 128992728#0 128992728#1 158601756#0"/>
    </vehicle>
    <vehicle id="15" depart="15.00">
        <route edges="-10770275 -10770689#0 -10779138#6 -10779138#5 -10779138#4 -10779138#3 -10779138#2 -10779138#1 -10779138#0 158601758#1 128992729 86700213#0 86700213#1 86700213#2 86700213#3 86700211#0 86700211#1 86700211#2 86700211#3 86700211#4 86700211#5 86700211#6 10777275#0 10777275#1 10777275#2 10777275#3 -10772293#5 -10772293#4 -10772293#3 -10772293#2 -10772293#1 -10772293#0"/>
    </vehicle>
    <vehicle id="16" depart="16.00">
        <route edges="10778416#0 -10778416#0 -10770765#0 -10768229#1 86700213#0 86700213#1 86700213#2 86700213#3 86700211#0 86700211#1 86700211#2 -10775757#4 -10775757#3 218541237#0"/>
    </vehicle>
    <vehicle id="17" depart="17.00">
        <route edges="10779551#0 -10777764#1 10778154#1 10777482#1 -10778377#0 -10775514#3 -10775514#2 -10775514#1 -10775514#0 158601758#0 158601758#1 128992729 86700213#0 86700213#1 86700213#2 86700213#3 86700211#0 86700211#1 86700211#2 86700211#3 86700211#4 86700211#5 86700211#6 10777275#0 10777275#1 -296360459#13 -296360459#12 -296360459#11 -296360459#10 -296360459#9 -296360459#8 -296360459#7 10775144#1 10775144#2 10775144#3 10775144#4 10775144#5 10775144#6 10775144#7 10775144#8 10775144#9 10775144#10 10775144#11 10775144#12 10775144#13 10775144#14 10775144#15 10775144#16 10775144#17 -10775144#17"/>
    </vehicle>
    <vehicle id="18" depart="18.00">
        <route edges="10770041 -10770041 -10767732#1 -10767732#0 -10771463#4 -10771463#3 -10771463#2 -10771463#1 -10771463#0 128992727#4 128992727#5 128992727#6 288534955 288534959#8"/>
    </vehicle>
    <vehicle id="19" depart="19.00">
        <route edges="10774808#1 -10774808#1 -10774808#0 -10776423 10775346#4 10775346#5 10775346#6 10775346#7 10770521#0 -10770520 -10775514#6 218101020#1 218101011#0 218101011#1 40343758#1 10767050 301725008#0 301725008#1 301725008#2 86700213#3 86700211#0 86700211#1 86700211#2 86700211#3 86700211#4 86700211#5 86700211#6 86700211#7 86700211#8 81164849#0 81164849#1 128992727#0 128992727#1 288534953 288534959#13"/>
    </vehicle>
    <vehicle id="20" depart="20.00">
        <route edges="-218316336#5 -218316335#0 10770840#4 10770840#5 -10775144#18 -10775144#17 -10775144#16 -10775144#15 -10775144#14 -10775144#13 -10775144#12 -10775144#11 -10775144#10 -10775144#9 -10775144#8 -10775144#7 -10775144#6 -10775144#5 -10775144#4 -10775144#3 -10775144#2 -10775144#1 296360459#7 296360459#8 296360459#9 296360459#10 296360459#11 296360459#12 296360459#13 -10777275#1 41703037#2 41703037#3 41703037#4 41703037#5 41703037#6 41703037#7 86700210#0 86700210#1 86700210#2 86700210#3 86700212 128992728#0 86700219 10779138#0 10779138#1 10779138#2 10780427 -10780427"/>
    </vehicle>
    <vehicle id="21" depart="21.00">
        <route edges="10775627#0 -10775627#0 10769488#1 -10779138#7 -10779138#6 -10779138#5 -10779138#4 -10779138#3 -10779138#2 -10779138#1 -10779138#0 158601758#1 128992729 10768229#1 10770765#0 10770765#1 10770765#2 10770765#3 10770765#4 10770765#5 10770765#6 10772319#0 10772319#1 10772319#2 10772319#3 -10772319#3"/>
    </vehicle>
    <vehicle id="23" depart="23.00">
        <route edges="-10775944 -10775144#1 296360459#7 296360459#8 296360459#9 296360459#10 296360459#11 296360459#12 296360459#13 -10777275#1 41703037#2 41703037#3 41703037#4 41703037#5 41703037#6 41703037#7 86700210#0 86700210#1 86700210#2 86700210#3 10768229#0 10768229#1 10768229#2 10768229#3 10768229#4 10768229#5 10768229#6 10768229#7"/>
    </vehicle>
    <vehicle id="24" depart="24.00">
        <route edges="218101656#1 10775515#0 218101027#1 218101027#2 218101027#3 218101815#0 218101815#1 218101815#2 51738140#0 51738140#1 51738140#2 51738140#3 -10775514#6 -10775514#5 -10775514#4 -10775514#3 -10775514#2 -10775514#1 158601756#0 158601756#1 158601756#2 158601756#3 10779743#1 -10779743#1"/>
    </vehicle>
    <vehicle id="25" depart="25.00">
        <route edges="218101656#2 218101027#0 218101027#1 218101027#2 218101027#3 218101815#0 218101815#1 218101031 291271454 218101016 218101011#1 40343758#1 10767050 301725008#0 301725008#1 301725008#2 86700213#3 86700211#0 86700211#1 86700211#2 86700211#3 86700211#4 86700211#5 86700211#6 10777275#0 10777275#1 -296360459#13 -296360459#12 -296360459#11 -296360459#10 -296360459#9 -296360459#8 -296360459#7 10775144#1 10775144#2 10775144#3 10775144#4 -10779547#3"/>
    </vehicle>
    <vehicle id="26" depart="26.00">
        <route edges="218099091#0 -218099091#0 218099093#2 218099093#3 218099093#4 218099093#5 10775346#3 10775346#4 10775346#5 10775346#6 10775346#7 10770521#0 -10770520 -10775514#6 218101020#1 218101011#0 218101011#1 40343758#1 10767050 301725008#0 301725008#1 301725008#2 86700213#3 86700211#0 86700211#1 86700211#2 86700211#3 86700211#4 86700211#5 86700211#6 10777275#0 10777275#1 -296360459#13 -296360459#12 -296360459#11 -296360459#10 -296360459#9 -296360459#8 -296360459#7 10775144#1 10775144#2 10775144#3 10775144#4 10775144#5 10775144#6 10775144#7 10775144#8 10775144#9 10775144#10 10775144#11 10775144#12 10775144#13 10775144#14 10775144#15 10775144#16 10775144#17 10775144#18 -10770840#5 -10770840#4 -10770840#3 -218316338#4 -218316338#3 218316336#1"/>
    </vehicle>
    <vehicle id="27" depart="27.00">
        <route edges="-296360459#9 296360459#9 296360459#10 296360459#11 296360459#12 86700215#0 86700215#1 86700211#8 81164849#0 81164849#1 128992727#0 -288534954 288534959#14 288534965#0"/>
    </vehicle>
    <vehicle id="28" depart="28.00">
        <route edges="218101033#2 51738140#3 -10775514#6 218101020#1 218101011#0 218101011#1 40343758#1 10767050 301725008#0 301725008#1 301725008#2 86700213#3 86700211#0 86700211#1 86700211#2 86700211#3 86700211#4 86700211#5 86700211#6 86700211#7 86700211#8 81164849#0 81164849#1 128992727#0 128992727#1 128992727#2 128992727#3 10771463#0 10771463#1 10771463#2"/>
    </vehicle>
    <vehicle id="29" depart="29.00">
        <route edges="218541237#0 -218541237#0 10775757#3 10775757#4 86700211#3 86700211#4 86700211#5 86700211#6 86700211#7 86700211#8 81164849#0 81164849#1 128992727#0 128992727#1 288534953"/>
    </vehicle>
    <vehicle id="31" depart="31.00">
        <route edges="-10777919 10777919 -10769629#0 -10768965#0 -10768229#7 -10768229#6 -10768229#5 -10768229#4 -10768229#3 -10768229#2 -10768229#1 -10768229#0 86700212 128992728#0 86700219 10779138#0 10779138#1 10779138#2 10779138#3 10779138#4 10779138#5 10779138#6 10779138#7 10779138#8 10779138#9 10779138#10"/>
    </vehicle>
    <vehicle id="32" depart="32.00">
        <route edges="10775515#5 -10775515#5 -10775515#4 -10775515#3 -10775515#2 -10775515#1 218101027#1 218101027#2 218101027#3 218101815#0 218101815#1 218101815#2 51738140#0 51738140#1 51738140#2 51738140#3 -10775514#6 -10775514#5 -10775514#4 -10775514#3 -10775514#2 -10775514#1 158601756#0 158601756#1 158601756#2 -10767931 10780228#1"/>
    </vehicle>
    <vehicle id="33" depart="33.00">
        <route edges="-10769624#1 10769624#1 10775144#7 10775144#8 10775144#9 10775144#10 10775144#11 10775144#12 10775144#13 10775144#14 10775144#15 10775144#16 10775144#17 10775144#18 -10770840#5 -10770840#4 -10770840#3 -10770840#2 -10770840#1 218304778#0 -218304768#2 -218304768#1 -218304774#2 -218304774#1 -218304774#0 218304770#2 218304770#3 -218304770#3"/>
    </vehicle>
    <vehicle id="34" depart="34.00">
        <route edges="-218541262 -218541237#1 -218541237#0 10775757#3 10775757#4 86700211#3 86700211#4 86700211#5 86700211#6 10777275#0 10777275#1 -296360459#13 -296360459#12 -296360459#11 -296360459#10 -296360459#9 -296360459#8 -296360459#7 10775144#1 10775144#2 10775144#3 10775144#4 10775144#5 10775144#6 10775144#7 10775144#8 10775144#9 10775144#10 -10769202 -10768235#1 -10768235#0 -10769067#3 -10767574 10768343#1 -10771352"/>
    </vehicle>
    <vehicle id="35" depart="35.00">
        <route edges="-218304770#1 -218304770#0 -218304778#1 -218304778#0 10770840#1 10770840#2 10770840#3 10770840#4 10770840#5 -10775144#18 -10775144#17 10779146#0 -218327575#1 10772293#0 10772293#1 10772293#2 10770883 -10770883"/>
    </vehicle>
    <vehicle id="36" depart="36.00">
        <route edges="-218304778#3 -218304778#2 -218304778#1 -218304778#0 10770840#1 10770840#2 10770840#3 10770840#4 10770840#5 -10775144#18 -10775144#17 -10775144#16 -10775144#15 -10775144#14 -10775144#13 -10775144#12 -10775144#11 -10775144#10 -10775144#9 -10775144#8 -10775144#7 -10775144#6 -10775144#5 -10775144#4 -10775144#3 -10775144#2 -10775144#1 296360459#7 296360459#8 296360459#9 296360459#10 296360459#11 296360459#12 296360459#13 -10777275#1 41703037#2 41703037#3 41703037#4 41703037#5 41703037#6 41703037#7 86700210#0 86700210#1 86700210#2 86700210#3 86700212 128992728#0 128992728#1 -10775514#0 10769914#0 10769914#1 10769914#2 10769914#3 10769914#4 10774277#0 10774277#1 10774277#2 -10774277#2"/>
    </vehicle>
    <vehicle id="38" depart="38.00">
        <route edges="10771657 -10771657 -10775515#2 -10775515#1 218101027#1 218101027#2 218101027#3 218101815#0 218101815#1 218101031 291271454 218101016 218101011#1 40343758#1 10767050 301725008#0 301725008#1 301725008#2 86700213#3 86700211#0 86700211#1 86700211#2 86700211#3 86700211#4 86700211#5 86700211#6 10777275#0 10777275#1 -296360459#13 -296360459#12 -296360459#11 -296360459#10 -296360459#9 -296360459#8 -296360459#7 10775144#1 10775144#2 10775144#3 10775144#4 10775144#5 10775144#6 10775144#7 10775144#8 10775144#9 10775144#10 10775144#11 10775144#12 10775144#13 -10775144#13"/>
    </vehicle>
    <vehicle id="39" depart="39.00">
        <route edges="-218541233#7 218541233#7 218541234"/>
    </vehicle>
    <vehicle id="40" depart="40.00">
        <route edges="-10774277#2 -10774277#1 -10774277#0 -10769914#4 -10769914#3 -10769914#2 -10769914#1 -10775909#1 -10775909#0 10779138#2 10779138#3 10779138#4 10779138#5 10779138#6"/>
    </vehicle>
    <vehicle id="41" depart="41.00">
        <route edges="-10777713 10778782#5 -10767562#0 -10771463#2 -10771463#1 -10771463#0 10774793#0 288534959#11 288534959#12 288534959#13 288534959#14 288534965#0 288534965#1 41703037#0 41703037#1 41703037#2 41703037#3 41703037#4 41703037#5 10767264 291271456#2 40343749#1 10766473 10766552 218101656#1 10775515#0 10775515#1 10775515#2 -10775515#2"/>
    </vehicle>
    <vehicle id="43" depart="43.00">
        <route edges="40415783#1 40343748 40343749#0 40343749#1 10766473 10766552 218101656#1 218101656#2 -128992809 -10773875#1 -10773875#0 -10777275#8 -10777275#7 10773126"/>
    </vehicle>
    <vehicle id="44" depart="44.00">
        <route edges="10769025#2 -10769025#2 -10769025#1 -10769025#0 -10774277#1 -10774277#0 -10769914#4 -10769914#3 -10769914#2 -10769914#1 -10769914#0 10775514#0 158601756#0 158601756#1 158601756#2 158601756#3 158601756#4"/>
    </vehicle>
    <vehicle id="45" depart="45.00">
        <route edges="-228956271#3 -228956271#2 133634668 -10774793#2 296360459#9 296360459#10 296360459#11 296360459#12 296360459#13 -10777275#1 41703037#2 41703037#3 41703037#4 41703037#5 41703037#6 41703037#7 86700210#0 86700210#1 86700210#2 86700210#3 10768229#0 10768229#1 10768229#2 10768229#3 10772050#0 228920720#0 228920720#1 228920720#2 -10768521#1 -10768521#0 10778241#0 10778241#1"/>
    </vehicle>
    <vehicle id="46" depart="46.00">
        <route edges="-10775514#2 -10775514#1 -10775514#0 158601758#0 158601758#1 128992729 86700213#0 86700213#1 86700213#2 86700213#3 86700211#0 86700211#1 86700211#2 86700211#3 86700211#4 86700211#5 86700211#6 86700211#7 86700211#8 81164849#0 81164849#1 128992727#0 128992727#1 128992727#2 128992727#3 128992727#4 128992727#5 128992727#6 128992727#7 288534949 288534959#7"/>
    </vehicle>
    <vehicle id="47" depart="47.00">
        <route edges="10773126"/>
    </vehicle>
    <vehicle id="49" depart="49.00">
        <route edges="-10779635 -10769806#3 -10770618 10778782#3 10778782#4 10778782#5 -10767562#0 -10771463#2 -10771463#1 -10771463#0 10774793#0 288534959#11 288534959#12 288534959#13 288534959#14 288534965#0 288534965#1 41703037#0 41703037#1 41703037#2 41703037#3 41703037#4 41703037#5 41703037#6 41703037#7 86700210#0 86700210#1 86700210#2 86700210#3 86700212 128992728#0 128992728#1 -10775514#0 10769914#0 10769914#1 10769914#2 10769914#3 10769914#4 10774253 -10774253"/>
    </vehicle>
    <vehicle id="50" depart="50.00">
        <route edges="-218103655#1 -218103655#0 86697277#3 86697277#4 158601758#0 158601758#1 128992729 86700213#0 86700213#1 86700213#2 86700213#3 86700211#0 86700211#1 86700211#2 86700211#3 86700211#4 86700211#5 86700211#6 86700211#7 86700211#8 10772673#0 10772673#1 10772673#2 10772673#3 10772673#4 -10768941#1 10768941#1"/>
    </vehicle>
    <vehicle id="51" depart="51.00">
        <route edges="288534951 -288534951 288534965#1 41703037#0 41703037#1 41703037#2 41703037#3 41703037#4 41703037#5 41703037#6 41703037#7 86700210#0 86700210#1 86700210#2 86700210#3 86700212 128992728#0 128992728#1 10775514#1 10769934 -10769934"/>
    </vehicle>
    <vehicle id="52" depart="52.00">
        <route edges="-10774994 -10772319#3 -10772319#2 -10772319#1 -10772319#0 -10770765#6 -10770765#5 -10770765#4 -10770765#3 10770765#3"/>
    </vehicle>
    <vehicle id="53" depart="53.00">
        <route edges="10769629#0 -10769629#0 -10768965#0 -10768229#7 -10768229#6 -10768229#5 -10768229#4 -10768229#3 -10768229#2 -10768229#1 -10768229#0 86700212 128992728#0 86700219 10779138#0 10779138#1 10779138#2 10780428"/>
    </vehicle>
    <vehicle id="55" depart="55.00">
        <route edges="-218541240 -218541233#6 -218541233#5 -218541233#4 -218541233#3 -218541233#2 -218541233#1 -218541233#0 10775757#2 10775757#3 41703037#5 41703037#6 41703037#7 86700210#0 86700210#1 86700210#2 86700210#3 86700212 128992728#0 128992728#1 -10775514#0 10769914#0 10769914#1 10769914#2 10769914#3 10769914#4 10774277#0 10774277#1 10769025#0 10769025#1 10769025#2 10769025#3 -10769025#3"/>
    </vehicle>
    <vehicle id="56" depart="56.00">
        <route edges="-10778154#1 10778154#1 10777482#1 -10778377#0 10775514#4 10775514#5 218101020#1 218101020#2 218101024#0 218101024#1 218101024#2 218101656#0 218101656#1 218101656#2 -128992809 -10773875#1 10778868 -10778868"/>
    </vehicle>
    <vehicle id="57" depart="57.00">
        <route edges="-10773875#0 -10777275#8 -10777275#7 -10777275#6 -10777275#5 -10777275#4 -10772293#5 -10772293#4 -10772293#3 -10772293#2 -10772293#1 -10772293#0 218327575#1 -10779146#0 10775144#17 10775144#18 -10770840#5 -10770840#4 -10770840#3 -10770840#2 -10770840#1 218304778#0 -218304768#2 -218304768#1 -218304774#2 -218304774#1 -218304774#0"/>
    </vehicle>
    <vehicle id="58" depart="58.00">
        <route edges="10769627 -10769914#5 -10769914#4 -10769914#3 -10769914#2 -10769914#1 -10769914#0 158601758#0 158601758#1 128992729 86700213#0 86700213#1 86700213#2 86700213#3 86700211#0 86700211#1 86700211#2 -10775757#4 -10775757#3 218541237#0 218541237#1 218541237#2 218541237#3"/>
    </vehicle>
    <vehicle id="59" depart="59.00">
        <route edges="218304770#1 218304774#0 218304774#1 218304774#2 218304768#1 218304768#2 -218304778#0 10770840#1 10770840#2 10770840#3 10770840#4 10770840#5 -10775144#18 -10775144#17 -10775144#16 -10775144#15 -10775144#14 -10775144#13 -10775144#12 -10775144#11 -10775144#10 -10775144#9 -10775144#8 -10775144#7 -10775144#6 -10775144#5 10775144#5"/>
    </vehicle>
    <vehicle id="60" depart="60.00">
        <route edges="10772293#0 10772293#1 10772293#2 10772293#3 10772293#4 10772293#5 -10777275#3 -10777275#2 -10777275#1 41703037#2 41703037#3 41703037#4 41703037#5 41703037#6 41703037#7 86700210#0 86700210#1 86700210#2 86700210#3 10768229#0 10768229#1 10768229#2 10768229#3 10772050#0 228920720#0 228920720#1 228920720#2 -10768521#1 -10768521#0"/>
    </vehicle>
    <vehicle id="61" depart="61.00">
        <route edges="10767878 10775346#7 10770521#0 -10770520 -10775514#6 218101020#1 218101011#0 218101011#1 40343758#1 10767050 301725008#0 301725008#1 301725008#2 86700213#3 86700211#0 86700211#1 86700211#2 86700211#3 86700211#4 86700211#5 86700211#6 10777275#0 10777275#1 -296360459#13 -296360459#12 -296360459#11 -296360459#10 -296360459#9 -296360459#8 -296360459#7 10775144#1 10775144#2 10775144#3 10775144#4 10775144#5 10775144#6 10775144#7 10775144#8"/>
    </vehicle>
    <vehicle id="62" depart="62.00">
        <route edges="10777113#0 -10777113#0 -10772153#1 -10775761#0 -10779138#0 158601758#1 128992729 86700213#0 40343747 10767054#3"/>
    </vehicle>
    <vehicle id="63" depart="63.00">
        <route edges="-10769671 -10767395#0 296360459#3 296360459#4 296360459#5 296360459#6 -10775144#0 10771105#0 10771105#1 10771105#2 10771105#3 -10768966#1 10773855#0 10773922 -10773923#0"/>
    </vehicle>
    <vehicle id="65" depart="65.00">
        <route edges="-10769624#0 10769624#0 10769624#1 -10775144#6 -10775144#5 -10775144#4 -10775144#3 -10775144#2 -10775144#1 296360459#7 296360459#8 296360459#9 296360459#10 296360459#11 296360459#12 296360459#13 -10777275#1 41703037#2 41703037#3 41703037#4 41703037#5 10767264 291271456#2 40343749#1 10766473 301725004 218101654#0 218101654#1 218101815#1 218101815#2 51738140#0 51738140#1 51738140#2 51738140#3 10770520 -10770521#0 -10775346#7 -10775346#6 -10775346#5 -10775346#4 -10775346#3 -218099093#5 -218099093#4 -218099093#3 218099093#3"/>
    </vehicle>
    <vehicle id="66" depart="66.00">
        <route edges="-10775169 10777275#6 10777275#7 10777275#8 10773875#0 10773875#1 128992809 218101027#0 218101027#1 218101027#2 218101027#3 218101815#0 218101815#1 218101815#2 51738140#0 51738140#1 51738140#2 51738140#3 10770520 -10770521#0 -10775346#7 -10775346#6 -10775346#5 -10775346#4 10775346#4"/>
    </vehicle>
    <vehicle id="68" depart="68.00">
        <route edges="218541233#8 -218541233#8 -218541233#7 -218541233#6 -218541233#5 -218541233#4 218541244#0 218541244#1 -218541232 218541227#1"/>
    </vehicle>
    <vehicle id="69" depart="69.00">
        <route edges="10776003#1 -10772673#0 288534970 41703037#0 -86700215#0 296360459#13 10777275#2 10777275#3 10777275#4 10777275#5 10775169"/>
    </vehicle>
    <vehicle id="70" depart="70.00">
        <route edges="288534959#4 288534959#5 288534959#6 288534959#7 288534959#8 288534959#9 288534959#10 -10774793#0 10771463#0 10771463#1 10771463#2 10771463#3 10771463#4 10767732#0 10767732#1 10767732#2 10767732#3 -10767732#3"/>
    </vehicle>
    <vehicle id="71" depart="71.00">
        <route edges="10778552 10768235#1 10769202 -10775144#10 -10775144#9 -10775144#8 -10775144#7 -10775144#6 -10775144#5 -10775144#4 -10775144#3 -10775144#2 -10775144#1 296360459#7 296360459#8 296360459#9 296360459#10 296360459#11 296360459#12 296360459#13 -10777275#1 41703037#2 41703037#3 41703037#4 41703037#5 41703037#6 41703037#7 86700210#0 86700210#1 86700210#2 86700210#3 86700212 128992728#0 128992728#1 10775514#1 10775514#2 10775514#3 10778377#0 10778377#1 -10778377#1"/>
    </vehicle>
    <vehicle id="72" depart="72.00">
        <route edges="-10774793#1 -10774793#0 128992727#4 128992727#5 128992727#6 128992727#7 128992727#8 -10771105#1 -10771105#0 10775144#0 10775144#1 10775144#2 10775144#3 10775144#4 10775144#5 10775144#6 -10769624#1 10769624#1"/>
    </vehicle>
    <vehicle id="73" depart="73.00">
        <route edges="10767053 86700210#3 10768229#0 86700213#0 86700213#1 86700213#2 86700213#3 86700211#0 86700211#1 86700211#2 86700211#3 86700211#4 86700211#5 86700211#6 10777275#0 10777275#1 -296360459#13 -296360459#12 -296360459#11 -296360459#10 -296360459#9 -296360459#8 -296360459#7 10775144#1 10775144#2 10775144#3 10775144#4 10775144#5 10775144#6 10775144#7 10775144#8 10775144#9 10775144#10 -10769202 10768235#2 -10777663"/>
    </vehicle>
    <vehicle id="74" depart="74.00">
        <route edges="-296777321 218304774#2 218304768#1 218304768#2 -218304778#0 10770840#1 10770840#2 10770840#3 10770840#4 10770840#5 -10775144#18 -10775144#17 -10775144#16 -10775144#15 -10775144#14 -10775144#13 -10775144#12 -10775144#11 -10775144#10 -10775144#9 -10775144#8 -10775144#7 -10775144#6 -10775144#5 -10775144#4 -10775144#3 -10775144#2 -10775144#1 -10775144#0 10771105#0 288534959#6 288534959#7 288534959#8 288534959#9 288534959#10 -10774793#0 10771463#0 10771463#1 10771463#2 10767562#0 -10778782#5 -10778782#4 -10778782#3 10770618 -10770618"/>
    </vehicle>
    <vehicle id="75" depart="75.00">
        <route edges="10779547#0 -10779547#0 10768343#0 10767574 10769067#3"/>
    </vehicle>
    <vehicle id="76" depart="76.00">
        <route edges="10768229#0 -10768229#0 86700212 128992728#0 128992728#1 10775514#1 10775514#2 10775514#3 10778377#0 -10777482#1 -10778154#1 -10778154#0 10778154#0"/>
    </vehicle>
    <vehicle id="77" depart="77.00">
        <route edges="-228920726 -228920720#0 -10772050#0 -10768229#3 -10768229#2 -10768229#1 -10768229#0 86700212 128992728#0 128992728#1"/>
    </vehicle>
    <vehicle id="78" depart="78.00">
        <route edges="218541238 -218541238 -218541233#8 -218541233#7 -218541233#6 -218541233#5 218541233#5"/>
    </vehicle>
    <vehicle id="79" depart="79.00">
        <route edges="10769865#1 -10769865#1 -10775627#0 10769488#1 -10779138#7 -10779138#6 -10779138#5 -10779138#4 -10779138#3 -10779138#2 -10779138#1 -10779138#0 158601758#1 128992729 86700213#0 86700213#1 86700213#2 86700213#3 86700211#0 86700211#1 86700211#2 86700211#3 86700211#4 86700211#5 10773762#1 -10773762#1"/>
    </vehicle>
    <vehicle id="80" depart="80.00">
        <route edges="10778469#0 10778469#1 10778469#2 -10776280 -10775514#4 -10775514#3 -10775514#2 -10775514#1 -10775514#0 158601758#0 158601758#1 128992729 86700213#0 86700213#1 86700213#2 86700213#3 86700211#0 86700211#1 86700211#2 86700211#3 86700211#4 86700211#5 86700211#6 10777275#0 10777275#1 -296360459#13 -296360459#12 -296360459#11 -296360459#10 -296360459#9 -296360459#8 -296360459#7 10775144#1 10775144#2 10775144#3 10775144#4 10775144#5 10775144#6 10775144#7 10775144#8 10775144#9 10775144#10 10775144#11 10775144#12 10775144#13 10775144#14 10775144#15 10775144#16 10775144#17 10775144#18 -10770840#5 -10770840#4 -10770840#3 -10770840#2 -10770840#1 -10770840#0"/>
    </vehicle>
    <vehicle id="81" depart="81.00">
        <route edges="-10779138#9 -10779138#8 -10779138#7 -10779138#6 -10779138#5 -10779138#4 -10779138#3 -10779138#2 10775909#0 10775909#1 -10769914#0 10775514#0 10775514#1 10775514#2 10775514#3 10778377#0 -10777482#1 -10777482#0 -10779551#1"/>
    </vehicle>
    <vehicle id="82" depart="82.00">
        <route edges="10773151 -10773151 -10779138#9 -10779138#8 -10779138#7 -10779138#6 -10779138#5 -10779138#4 -10779138#3 -10779138#2 -10779138#1 -10779138#0 158601758#1 128992729 86700213#0 86700213#1 86700213#2 86700213#3 86700211#0 86700211#1 86700211#2 86700211#3 86700211#4 86700211#5 86700211#6 10777275#0 10777275#1 10777275#2 10777275#3 -10772293#5 10772293#5"/>
    </vehicle>
    <vehicle id="83" depart="83.00">
        <route edges="-10767395#0 296360459#3 296360459#4 296360459#5 296360459#6 296360459#7 296360459#8 296360459#9 296360459#10 296360459#11 296360459#12 296360459#13 -10777275#1 41703037#2 41703037#3 41703037#4 41703037#5 41703037#6 41703037#7 86700210#0 86700210#1 86700210#2 86700210#3 86700212 128992728#0 86700219 10779138#0 10779138#1 10779138#2 10779138#3 10779138#4 10779138#5 10779138#6 10770689#0 10770275 -10769488#2"/>
    </vehicle>
    <vehicle id="85" depart="85.00">
        <route edges="10775761#0 -10775761#0 -10779138#0 158601758#1 128992729 10768229#1 10768229#2 10768229#3"/>
    </vehicle>
    <vehicle id="87" depart="87.00">