<?xml version="1.0" encoding="UTF-8"?>

<!-- generated on 04/03/16 16:06:22 by SUMO duarouter Version 0.19.0
<?xml version="1.0" encoding="UTF-8"?>

<configuration xmlns:xsi="http://www.w3.org/2001/XMLSchema-instance" xsi:noNamespaceSchemaLocation="http://sumo-sim.org/xsd/duarouterConfiguration.xsd">

    <input>
        <net-file value="..\Maps\i95highway.net.xml"/>
        <trip-files value="trips.trips.xml"/>
    </input>

    <output>
        <output-file value="i95highway200.rou.xml"/>
    </output>

    <processing>
        <ignore-errors value="true"/>
    </processing>

    <time>
        <begin value="0"/>
        <end value="200.0"/>
    </time>

</configuration>
-->

<routes xmlns:xsi="http://www.w3.org/2001/XMLSchema-instance" xsi:noNamespaceSchemaLocation="http://sumo-sim.org/xsd/routes_file.xsd">
    <vehicle id="0" depart="0.00">
        <route edges="288534938 128992727#10 -10770947#1 -10770947#0 -296360459#5 -296360459#4 -296360459#3 -296360459#2"/>
    </vehicle>
    <vehicle id="1" depart="1.00">
        <route edges="-10775144#10 10775144#10 10775144#11 10775144#12 10775144#13 10775144#14 10775144#15 10775144#16 10775144#17 10775144#18 -10770840#5 -10770840#4 218316335#0 218316336#5"/>
    </vehicle>
    <vehicle id="2" depart="2.00">
        <route edges="-10775514#1 -10775514#0 158601758#0 158601758#1 128992729 86700213#0 86700213#1 86700213#2 86700213#3 86700211#0 86700211#1 86700211#2 86700211#3 86700211#4 86700211#5 86700211#6 10777275#0 10777275#1 -296360459#13 -296360459#12 -296360459#11 -296360459#10 -296360459#9 -296360459#8 -296360459#7 10775144#1 10775144#2 10775144#3 10775144#4 10775144#5 10775144#6 10775144#7 10775144#8 10775144#9"/>
    </vehicle>
    <vehicle id="3" depart="3.00">
        <route edges="-10770840#2 10770840#2 10770840#3 10770840#4 10770840#5 -10775144#18 -10775144#17 -10775144#16 -10775144#15 -10775144#14 -10775144#13 -10775144#12 -10775144#11 -10775144#10 -10775144#9 -10775144#8 -10775144#7 -10775144#6 -10775144#5 -10775144#4 -10775144#3 -10775144#2 -10775144#1 296360459#7 296360459#8 296360459#9 296360459#10 296360459#11 296360459#12 296360459#13 -10777275#1 41703037#2 41703037#3 41703037#4 41703037#5 10767264 291271456#2 40343749#1 10766473 301725004 218101654#0 218101654#1 218101815#1 218101031 291271454 218101016 218101011#1 40343758#1"/>
    </vehicle>
    <vehicle id="4" depart="4.00">
        <route edges="-10768985#1 -10775761#3 -10775761#2 -10775761#1 -10775761#0 -10779138#0 158601758#1 128992729 10768229#1 10770765#0 10770765#1 10770765#2 10770765#3 10770765#4 10770765#5 10769866"/>
    </vehicle>
    <vehicle id="5" depart="5.00">
        <route edges="-10769429 -10779231 10777919 -10769629#0 -10768965#0 -10768229#7 -10768229#6 -10768229#5 -10768229#4 -10768229#3 -10768229#2 -10768229#1 86700213#0 86700213#1 86700213#2 86700213#3 86700211#0 86700211#1 86700211#2 86700211#3 86700211#4 86700211#5 86700211#6 10777275#0 10777275#1 -296360459#13 -296360459#12 -296360459#11 -296360459#10 -296360459#9 -296360459#8 -296360459#7 10775144#1 10775144#2 10775144#3 10775144#4 10775144#5 -10779331 10779547#3"/>
    </vehicle>
    <vehicle id="6" depart="6.00">
        <route edges="-10780158 -10769914#1 -10769914#0 158601758#0 158601758#1 128992729 86700213#0 86700213#1 86700213#2 86700213#3 86700211#0 86700211#1 86700211#2 86700211#3 86700211#4 86700211#5 86700211#6 86700211#7 86700211#8 81164849#0 81164849#1 128992727#0 128992727#1 128992727#2 128992727#3 128992727#4 128992727#5 128992727#6 128992727#7 128992727#8 10771105#2 10771105#3 -10768966#1 -10768966#0"/>
    </vehicle>
    <vehicle id="7" depart="7.00">
        <route edges="10779331 -10775144#5 -10775144#4 -10775144#3 -10775144#2 -10775144#1 296360459#7 296360459#8 296360459#9"/>
    </vehicle>
    <vehicle id="8" depart="8.00">
        <route edges="296360459#5 296360459#6 296360459#7 296360459#8 296360459#9 296360459#10 296360459#11 296360459#12 296360459#13 -10777275#1 41703037#2 41703037#3 41703037#4 41703037#5 41703037#6 41703037#7 86700210#0 86700210#1 86700210#2 86700210#3 10768229#0 10768229#1 10768229#2 10768229#3 10772050#0 228920720#0 228920720#1 228920720#2 -10768521#1"/>
    </vehicle>
    <vehicle id="9" depart="9.00">
        <route edges="-218541244#3 -218541244#2 -218541244#1 -218541244#0 -218541233#3 -218541233#2 -218541233#1 -218541233#0 10775757#2 10775757#3 41703037#5 41703037#6 41703037#7 86700210#0 86700210#1 86700210#2 86700210#3 86700212 128992728#0 86700219 10779138#0 10779138#1 10779138#2 10779138#3 10779138#4 10779138#5 10779138#6 10779138#7 -10769488#1 10775627#0 10775627#1"/>
    </vehicle>
    <vehicle id="10" depart="10.00">
        <route edges="10768229#5 -10768229#5 -10768229#4 -10768229#3 -10768229#2 -10768229#1 86700213#0 86700213#1 86700213#2 86700213#3 86700211#0 86700211#1 86700211#2 86700211#3 86700211#4 86700211#5 86700211#6 10777275#0 10777275#1 -296360459#13 -296360459#12 -296360459#11 -296360459#10 -296360459#9 -296360459#8 -296360459#7 10775144#1 10775144#2 10775144#3 10775144#4 10775144#5 10775144#6 10775144#7 10775144#8 10775144#9 10775144#10 10775144#11 10775144#12 10775144#13 10775144#14 10775144#15 10775144#16 10775144#17 10775144#18 -10770840#5 -10770840#4 -10770840#3 -218316338#4 -218316338#3 218316336#1"/>
    </vehicle>
    <vehicle id="13" depart="13.00">
        <route edges="-10778241#0 10768521#0 10768521#1 -228920720#2 -228920720#1 -228920720#0 -10772050#0 -10768229#3 -10768229#2 -10768229#1 -10768229#0 86700212 128992728#0 128992728#1 -10775514#0 10769914#0 10769914#1 10769914#2 10769914#3 10769914#4 10774253 -10774252#0 -10774252#1"/>
    </vehicle>
    <vehicle id="14" depart="14.00">
        <route edges="-10773649 10778782#1 10778782#2 10778782#3 10778782#4 10778782#5 -10767562#0 -10771463#2 -10771463#1 -10771463#0 128992727#4 128992727#5 128992727#6 128992727#7 128992727#8 -10771105#1 -10771105#0 10775144#0 10775144#1 10775144#2 10775144#3 10775144#4 10775144#5 10775144#6 10775144#7 10775144#8 10775144#9 10775144#10 10775144#11 10777898 -10772069#1"/>
    </vehicle>
    <vehicle id="15" depart="15.00">
        <route edges="-10775627#1 -10775627#0 10769488#1 -10779138#7 -10779138#6 -10779138#5 -10779138#4 -10779138#3 -10779138#2 10775909#0 10775909#1 -10769914#0 10775514#0 10775514#1 10769934"/>
    </vehicle>
    <vehicle id="16" depart="16.00">
        <route edges="10774252#0 -10774253 -10769914#4 -10769914#3 -10769914#2 -10769914#1 -10769914#0 158601758#0 158601758#1 128992729 86700213#0 86700213#1 86700213#2 86700213#3 86700211#0 86700211#1 86700211#2 -10775757#4 41703037#5 10767264"/>
    </vehicle>
    <vehicle id="17" depart="17.00">
        <route edges="10772293#3 10772293#4 10772293#5 -10777275#3 -10777275#2 -10777275#1 41703037#2 41703037#3 41703037#4 41703037#5 41703037#6 41703037#7 86700210#0 86700210#1 86700210#2 86700210#3 86700212 128992728#0 128992728#1 10775514#1 10775514#2 10775514#3 10778377#0 10778377#1 10778377#2"/>
    </vehicle>
    <vehicle id="18" depart="18.00">
        <route edges="218101027#2 218101027#3 218101815#0 218101815#1 218101815#2 51738140#0 51738140#1 51738140#2 51738140#3 -10775514#6 -10775514#5 -10775514#4 -10775514#3 -10775514#2 -10775514#1 -10775514#0 10769914#0 10769914#1 10769914#2 10769914#3 10769914#4 10774253 -10774253"/>
    </vehicle>
    <vehicle id="19" depart="19.00">
        <route edges="218541226#0 -218541226#0 218541233#6"/>
    </vehicle>
    <vehicle id="20" depart="20.00">
        <route edges="10768343#1 -10768343#1 -10768343#0 10779547#0 10779547#1"/>
    </vehicle>
    <vehicle id="22" depart="22.00">
        <route edges="-10767574 10767574 10769067#3 10768235#0 10768235#1 10769202 -10775144#10 -10775144#9 -10775144#8 -10775144#7 -10775144#6 -10775144#5 -10775144#4 -10775144#3 -10775144#2 -10775144#1 296360459#7 296360459#8 296360459#9 296360459#10 296360459#11 296360459#12 296360459#13 -10777275#1 41703037#2 41703037#3 41703037#4 41703037#5 41703037#6 41703037#7 86700210#0 86700210#1 86700210#2 86700210#3 10768229#0 10768229#1 10768229#2 10768229#3 10768229#4 10768229#5 10768229#6 10775960#0 10775960#1"/>
    </vehicle>
    <vehicle id="23" depart="23.00">
        <route edges="-10769629#1 -10769629#0 -10768965#0 -10768229#7 -10768229#6 -10768229#5 -10768229#4 -10768229#3 -10768229#2 -10768229#1 86700213#0 86700213#1 86700213#2 86700213#3 86700211#0 86700211#1 86700211#2 86700211#3 86700211#4 86700211#5 86700211#6 10777275#0 10777275#1 -296360459#13 -296360459#12 -296360459#11 -296360459#10 -296360459#9 -296360459#8 -296360459#7 10775144#1 10775144#2 10775144#3 10775144#4 10775144#5 10775144#6 10775144#7 10775144#8 10775144#9 10775144#10 -10769202 -10768235#1 10768235#1"/>
    </vehicle>
    <vehicle id="24" depart="24.00">
        <route edges="10773151 -10773151 -10779138#9 -10779138#8 -10779138#7 -10779138#6 -10779138#5 -10779138#4 -10779138#3 -10779138#2 10775909#0 10775909#1 -10769914#0 10775514#0 10775514#1 10775514#2 10775514#3 10775514#4 10775514#5 10775514#6 10770520 10770521#1"/>
    </vehicle>
    <vehicle id="25" depart="25.00">
        <route edges="218541232 -218541244#1 -218541244#0 -218541233#3 -218541233#2 -218541233#1 -218541233#0 10775757#2 10775757#3 41703037#5 41703037#6 41703037#7 86700210#0 86700210#1 86700210#2 86700210#3 10768229#0 10768229#1 10768229#2 10768229#3 10772050#0 10772050#1 10770049 -10770049"/>
    </vehicle>
    <vehicle id="26" depart="26.00">
        <route edges="-10779138#4 -10779138#3 -10779138#2 -10779138#1 -10779138#0 158601758#1 128992729 86700213#0 86700213#1 86700213#2 86700213#3 86700211#0 86700211#1 86700211#2 -10775757#4 -10775757#3 -10775757#2 218541233#0 218541233#1 218541233#2 218541233#3 218541233#4 -218541233#4"/>
    </vehicle>
    <vehicle id="27" depart="27.00">
        <route edges="-10767332 -10775144#15 -10775144#14 -10775144#13 -10775144#12 -10775144#11 -10775144#10 -10775144#9 -10775144#8 -10775144#7 -10775144#6 -10775144#5 -10775144#4 -10775144#3 -10775144#2 -10775144#1 -10775144#0 10771105#0 10771105#1 10771105#2 10771105#3 81175922#0 81175922#1"/>
    </vehicle>
    <vehicle id="30" depart="30.00">
        <route edges="218101024#2 218101654#0 218101654#1 218101815#1 218101031 291271454 218101016 218101011#1 40343758#1 10767050 10767053 86700210#3 10768229#0 10768229#1 10768229#2 10768229#3 10772050#0"/>
    </vehicle>
    <vehicle id="31" depart="31.00">
        <route edges="10774793#0 288534959#11 288534959#12 288534959#13 288534959#14 288534965#0 288534965#1 41703037#0 41703037#1 41703037#2 41703037#3 41703037#4 -10775757#3 -10775757#2 218541233#0 218541233#1 218541233#2 218541233#3 218541233#4 218541233#5 218541233#6 218541233#7 218541233#8"/>
    </vehicle>
    <vehicle id="32" depart="32.00">
        <route edges="-10775757#3 10775757#3 41703037#5 41703037#6 41703037#7 86700210#0 86700210#1 86700210#2 86700210#3 86700212 128992728#0 86700219 10779138#0 10775761#0 10775761#1 10775761#2 10775761#3 10775761#4 -10775761#4"/>
    </vehicle>
    <vehicle id="33" depart="33.00">
        <route edges="-10775346#1 10775346#1 218099092 218099093#3 218099093#4 218099093#5 10775346#3 10775346#4 10775346#5 10775346#6 10775346#7 10770521#0 -10770520 -10775514#6 218101020#1 218101011#0 218101011#1 40343758#1 10767050 301725008#0 301725008#1 301725008#2 86700213#3 86700211#0 86700211#1 86700211#2 86700211#3 86700211#4 86700211#5 86700211#6 10777275#0 10777275#1 -296360459#13 -296360459#12 -296360459#11 -296360459#10 -296360459#9 -296360459#8 -296360459#7 10775144#1 10775144#2 10775144#3 10775144#4 10775144#5 10775144#6 10775144#7 10775144#8 10775144#9 10775144#10 10775144#11 10775144#12 10775144#13 10775144#14 10775144#15 10775144#16 10775144#17 10775144#18 -10770840#5 -10770840#4 -10770840#3 -10770840#2 -10770840#1 218304778#0 218304778#1 218304778#2 218304778#3 218304778#4 -296777324 -218304778#7 -218304778#6"/>
    </vehicle>
    <vehicle id="35" depart="35.00">
        <route edges="10778416#0 -10778416#0 -10770765#0 -10768229#1 86700213#0 86700213#1 86700213#2 86700213#3 86700211#0 86700211#1 86700211#2 86700211#3 86700211#4 86700211#5 86700211#6 86700211#7 86700211#8 81164849#0 81164849#1 128992727#0 128992727#1 128992727#2 128992727#3 10771463#0 10771463#1 10771463#2 10767562#0 10767562#1"/>
    </vehicle>
    <vehicle id="36" depart="36.00">
        <route edges="10772319#0 -10772319#0 -10770765#6 -10770765#5 -10770765#4 -10770765#3 -10770765#2 -10770765#1 -10770765#0 -10768229#1 86700213#0 86700213#1 86700213#2 86700213#3 86700211#0 86700211#1 86700211#2 86700211#3 86700211#4 86700211#5 86700211#6 10777275#0 10777275#1 -296360459#13 -296360459#12 -296360459#11 -296360459#10 -296360459#9 -296360459#8 -296360459#7 10775144#1 10775144#2 10775144#3 10775144#4 10775144#5 10775144#6 10775144#7 10775144#8 10775144#9 10775144#10 10775144#11 10775144#12 10775144#13 10775144#14 10775144#15 10775144#16 10775144#17 10775144#18 -10770840#5 -10770840#4 218316335#0 218316336#5"/>
    </vehicle>
    <vehicle id="38" depart="38.00">
        <route edges="-10775144#9 -10775144#8 -10775144#7 -10775144#6 -10775144#5 -10775144#4 -10775144#3 -10775144#2 -10775144#1 296360459#7 296360459#8 296360459#9 296360459#10 296360459#11 296360459#12 296360459#13 -10777275#1 41703037#2 41703037#3 41703037#4 41703037#5 41703037#6 41703037#7 86700210#0 86700210#1 86700210#2 86700210#3 10768229#0 10768229#1 10768229#2 10768229#3 10772050#0 228920720#0 228920720#1 228920720#2 -10768521#1 -10768521#0 10778241#0"/>
    </vehicle>
    <vehicle id="39" depart="39.00">
        <route edges="10774721#0 10774721#1 -10775960#0 -10768229#6 -10768229#5 -10768229#4 -10768229#3 -10768229#2 -10768229#1 86700213#0 86700213#1 86700213#2 86700213#3 86700211#0 86700211#1 86700211#2 86700211#3 86700211#4 86700211#5 86700211#6 10777275#0 10777275#1 -296360459#13 -296360459#12 -296360459#11 -296360459#10 -296360459#9 -296360459#8 -296360459#7 10775144#1 10775144#2 10775144#3 10775144#4 10775144#5 10775144#6 10775144#7 10775144#8 10775144#9 10775144#10 10775144#11 10775144#12 10775144#13 10775144#14 10775144#15 10775144#16 10775144#17 10775144#18 10775144#19 10768813#0 -10768813#0"/>
    </vehicle>
    <vehicle id="41" depart="41.00">
        <route edges="218541233#1 -218541233#1 -218541233#0 10775757#2 10775757#3 10775757#4 86700211#3 86700211#4 86700211#5 86700211#6 86700211#7 86700211#8 10772673#0 -10772673#0"/>
    </vehicle>
    <vehicle id="42" depart="42.00">
        <route edges="-218304774#1 218304774#1 218304774#2 218304768#1 218304768#2 -218304778#0 10770840#1 10770840#2 10770840#3 10770840#4 10770840#5 -10775144#18 -10775144#17 -10775144#16 -10775144#15 -10775144#14 -10775144#13 -10775144#12 -10775144#11 -10775144#10 -10775144#9 -10775144#8 -10775144#7 -10775144#6 -10775144#5 -10775144#4 -10775144#3 -10775144#2 -10775144#1 296360459#7 296360459#8 296360459#9 296360459#10 296360459#11 296360459#12 296360459#13 -10777275#1 41703037#2 41703037#3 41703037#4 41703037#5 41703037#6 41703037#7 86700210#0 86700210#1 86700210#2 86700210#3 86700212 128992728#0 128992728#1 158601756#0 158601756#1 158601756#2 158601756#3 158601756#4 -86697327#2 -86697327#1"/>
    </vehicle>
    <vehicle id="43" depart="43.00">
        <route edges="218103487#2 -218103487#0 -86697327#0 86697327#2 86697327#3 86697277#1 86697277#2 86697277#3 86697277#4 158601758#0 158601758#1 128992729 86700213#0 86700213#1 86700213#2 86700213#3 86700211#0 86700211#1 86700211#2 86700211#3 86700211#4 86700211#5 86700211#6 86700211#7 86700211#8 81164849#0 81164849#1 128992727#0 128992727#1 128992727#2 128992727#3 10771463#0 10771463#1 10771463#2 10771463#3 10771463#4 10767732#0 10767732#1 10770041 -10768262"/>
    </vehicle>
    <vehicle id="44" depart="44.00">
        <route edges="-10770765#1 -10770765#0 10768229#2 10768229#3 10772050#0 10772050#1 -10772050#1"/>
    </vehicle>
    <vehicle id="45" depart="45.00">
        <route edges="218304774#0 218304774#1 218304774#2 218304768#1 218304768#2 -218304778#0 10770840#1 10770840#2 10770840#3 10770840#4 10770840#5 -10775144#18 -10775144#17 -10775144#16 -10775144#15 -10775144#14 -10775144#13 -10775144#12 -10775144#11 -10775144#10 -10775144#9 -10775144#8 -10775144#7 -10775144#6 -10775144#5 -10775144#4 -10775144#3 -10775144#2 -10775144#1 296360459#7 296360459#8 296360459#9 296360459#10 296360459#11 296360459#12 296360459#13 10777275#2"/>
    </vehicle>
    <vehicle id="46" depart="46.00">
        <route edges="288534959#9 -288534956 128992727#5 128992727#6 128992727#7 128992727#8 -10771105#1 -10771105#0 10775144#0 -296360459#6 -296360459#5 -296360459#4 -296360459#3 -296360459#2 -296360459#1 -296360459#0 296360459#0"/>
    </vehicle>
    <vehicle id="47" depart="47.00">
        <route edges="10775125 -10775125 -10775909#0 -10779138#1 -10779138#0 158601758#1 128992729 86700213#0 86700213#1 86700213#2 86700213#3 86700211#0 86700211#1 86700211#2 86700211#3 86700211#4 86700211#5 86700211#6 86700211#7 86700211#8 81164849#0 81164849#1 128992727#0 128992727#1 128992727#2 128992727#3 10771463#0 10771463#1 10771463#2 10767562#0 -10778782#5 -10778782#4 -10778782#3 -10778782#2 -10778782#1"/>
    </vehicle>
    <vehicle id="48" depart="48.00">
        <route edges="-218304774#1 218304774#1 218304774#2 218304768#1 218304768#2 -218304778#0 10770840#1 10770840#2 10770840#3 10770840#4 10770840#5 -10775144#18 -10775144#17 -10775144#16 -10775144#15 -10775144#14 -10775144#13 -10775144#12 -10775144#11 -10775144#10 -10775144#9 -10775144#8 -10775144#7 -10775144#6 -10775144#5 -10775144#4 -10775144#3 -10775144#2 -10775144#1 296360459#7 296360459#8 296360459#9 296360459#10 296360459#11 296360459#12 296360459#13 -10777275#1 41703037#2 41703037#3 41703037#4 41703037#5 41703037#6 41703037#7 86700210#0 86700210#1 86700210#2 86700210#3 10768229#0 10768229#1 10770765#0 10770765#1 10770765#2 10770765#3 10770765#4 10770765#5 10770765#6 10772319#0 10772319#1"/>
    </vehicle>
    <vehicle id="49" depart="49.00">
        <route edges="288534959#6 288534959#7 288534959#8 288534959#9 288534959#10 288534959#11 288534959#12 288534959#13 288534959#14 288534965#0 288534965#1 41703037#0 41703037#1 41703037#2 41703037#3 41703037#4 41703037#5 41703037#6 41703037#7 86700210#0 86700210#1 86700210#2 86700210#3 10768229#0 10768229#1 10768229#2 10768229#3 10772050#0 10772050#1 10772050#2 -10772050#2"/>
    </vehicle>
    <vehicle id="50" depart="50.00">
        <route edges="-10769865#0 10769865#0 -10775627#0 10769488#1 -10779138#7 -10779138#6 -10779138#5 -10779138#4 -10779138#3 -10779138#2 -10779138#1 -10779138#0 158601758#1 128992729 10768229#1 10768229#2 10768229#3 10768229#4 10768229#5 -10768229#5"/>
    </vehicle>
    <vehicle id="51" depart="51.00">
        <route edges="-10773923#1 -10773922 -10773855#0 10768966#1 -10771105#3 -10771105#2 -10771105#1 288534959#6 288534959#7 288534959#8 288534959#9 288534959#10 288534959#11 288534959#12 288534959#13 288534959#14 288534965#0 288534965#1 41703037#0 41703037#1 41703037#2 41703037#3 41703037#4 41703037#5 41703037#6 41703037#7 86700210#0 86700210#1 86700210#2 86700210#3 86700212 128992728#0 128992728#1 10775514#1 10775514#2 10775514#3 10778377#0 -10777482#1 -10778154#1"/>
    </vehicle>
    <vehicle id="52" depart="52.00">
        <route edges="218541244#0 -218541244#0 -218541233#3 -218541233#2 -218541233#1 -218541233#0 10775757#2 10775757#3 41703037#5 41703037#6 41703037#7 86700210#0 86700210#1 86700210#2 86700210#3 86700212 128992728#0 86700219 10779138#0 10779138#1 10779138#2 10779138#3 10779138#4 10779138#5 10779138#6 10779138#7 -10769488#1 10775627#0 -10775627#0"/>
    </vehicle>
    <vehicle id="53" depart="53.00">
        <route edges="-10770681 10770681 10768985#0 -10775761#3 -10775761#2 -10775761#1 -10775761#0 10779138#1 10775909#0 10775909#1 -10769914#0 10775514#0 10775514#1 10775514#2 10775514#3 10775514#4 10775514#5 10775514#6 10770520 -10770521#0 -10775346#7 -10775346#6 -10775346#5 10775346#5"/>
    </vehicle>
    <vehicle id="54" depart="54.00">
        <route edges="-10769914#2 -10769914#1 -10769914#0 158601758#0 158601758#1 128992729 86700213#0 86700213#1 86700213#2 86700213#3 86700211#0 86700211#1 86700211#2 86700211#3 86700211#4 86700211#5 86700211#6 86700211#7 86700211#8 81164849#0 81164849#1 128992727#0 128992727#1 128992727#2 128992727#3 10771463#0 10770852#0 10769516#0 -10769516#0"/>
    </vehicle>
    <vehicle id="55" depart="55.00">
        <route edges="10773762#2 -10773762#2 -10773762#1 86700211#6 10777275#0 10777275#1 -296360459#13 -296360459#12 -296360459#11 -296360459#10 -296360459#9 -296360459#8 -296360459#7 10775144#1 10775144#2 10775144#3 10775144#4 10775144#5 10775144#6 10775144#7 10775144#8 10775144#9 10775144#10 10775144#11 10775144#12 10775144#13 10775144#14 10775144#15 10775144#16 10775144#17 10775144#18 -10770840#5 -10770840#4 -10770840#3 -218316338#4 -218316338#3"/>
    </vehicle>
    <vehicle id="56" depart="56.00">
        <route edges="218101024#0 218101024#1 218101655#0 218101654#1 218101815#1 218101031 291271454 218101016 218101011#1 40343758#1 10767050 301725008#0 301725008#1 301725008#2 86700213#3 86700211#0 86700211#1 86700211#2 86700211#3 86700211#4 86700211#5 86700211#6 86700211#7 86700211#8 10772673#0 10772673#1 10772673#2"/>
    </vehicle>
    <vehicle id="57" depart="57.00">
        <route edges="10778868 -10778868 10773875#1 128992809 218101027#0 218101027#1 218101027#2 218101027#3 218101815#0 218101815#1 218101031 291271454 218101016 218101011#1 40343758#1 10767050 301725008#0 301725008#1 301725008#2 86700213#3 86700211#0 86700211#1 86700211#2 86700211#3 86700211#4 86700211#5 86700211#6 10777275#0 10777275#1 -296360459#13 -296360459#12 -296360459#11 -296360459#10 -296360459#9 -296360459#8 -296360459#7 10775144#1 -10775144#1"/>
    </vehicle>
    <vehicle id="58" depart="58.00">
        <route edges="10775144#12 10775144#13 10775144#14 10775144#15 10775144#16 10775144#17 10775144#18 -10770840#5 -10770840#4 -10770840#3 -10770840#2 -10770840#1 218304778#0 218304778#1 218304778#2 296777326"/>
    </vehicle>
    <vehicle id="59" depart="59.00">
        <route edges="10767931 158601756#3 10779743#1 86697277#2 86697277#3 86697277#4 158601758#0 158601758#1 128992729 86700213#0 86700213#1 86700213#2 86700213#3 86700211#0 86700211#1 86700211#2 86700211#3 86700211#4 86700211#5 86700211#6 10777275#0 10777275#1 -296360459#13 -296360459#12 -296360459#11 -296360459#10 -296360459#9 -296360459#8 -296360459#7 10775144#1 10775144#2 10775144#3 10775144#4 10775144#5 10775144#6 10775144#7 10775144#8 10775144#9 10775144#10 -10769202 -10768235#1 -10778552"/>
    </vehicle>
    <vehicle id="60" depart="60.00">
        <route edges="-10769516#0 -10770852#0 -10771463#0 128992727#4 128992727#5 128992727#6 128992727#7 128992727#8 -10771105#1 -10771105#0 10775144#0 10775144#1 10775144#2 10775144#3 10775144#4 10775144#5 10775144#6 10775144#7 10775144#8 10769072"/>
    </vehicle>
    <vehicle id="62" depart="62.00">
        <route edges="-10768235#4 -10768235#3 -10768235#2 10769202 -10775144#10 -10775144#9 -10775144#8 -10775144#7 -10775144#6 -10775144#5 -10775144#4 -10775144#3 -10775144#2 -10775144#1 296360459#7 296360459#8 296360459#9 296360459#10 296360459#11 296360459#12 296360459#13 10777275#2 10777275#3 -10772293#5 218541482"/>
    </vehicle>
    <vehicle id="63" depart="63.00">
        <route edges="218304774#0 218304774#1 218304774#2 218304768#1 218304768#2 -218304778#0 10770840#1 10770840#2 10770840#3 10770840#4 10770840#5 -10775144#18 -10775144#17 -10775144#16 -10775144#15 -10775144#14 -10775144#13 -10775144#12 -10775144#11 -10775144#10 -10775144#9 -10775144#8 -10775144#7 -10775144#6 -10775144#5 -10775144#4 -10775144#3 -10775144#2 -10775144#1 296360459#7 296360459#8 296360459#9 296360459#10 296360459#11 296360459#12 296360459#13 -10777275#1 41703037#2 41703037#3 41703037#4 41703037#5 10767264 291271456#2 40343749#1 10766473 10766552 218101656#1 10775515#0 10775515#1 10775515#2"/>
    </vehicle>
    <vehicle id="64" depart="64.00">
        <route edges="10769025#1 -10769025#1 -10769025#0 -10774277#1 -10774277#0 -10769914#4 -10769914#3"/>
    </vehicle>
    <vehicle id="65" depart="65.00">
        <route edges="86697327#3 86697277#1 86697277#2 86697277#3 86697277#4 158601758#0 158601758#1 128992729 10768229#1 10768229#2 10768229#3 10768229#4 -10768229#4"/>
    </vehicle>
    <vehicle id="66" depart="66.00">
        <route edges="40343749#0 40343749#1 10766473 301725004 218101654#0 218101654#1 218101815#1 218101815#2 51738140#0 51738140#1 51738140#2 51738140#3 -10775514#6 -10775514#5 -10775514#4 -10775514#3 -10775514#2 -10775514#1 -10775514#0 158601758#0 10779138#0 10775761#0 10775761#1 10775761#2 10775761#3 10775761#4 10767342#1 10777400#0 -10777694"/>
    </vehicle>
    <vehicle id="67" depart="67.00">
        <route edges="-10777138#1 10769015 -10771463#1 -10771463#0 128992727#4 128992727#5 128992727#6 128992727#7 128992727#8 -10771105#1 -10771105#0 10775144#0 10775144#1 10775144#2 10775144#3 10775144#4 10775144#5 10775144#6 10775144#7 10775144#8 10775144#9 10775144#10 10775144#11 10775144#12 10775144#13 10775144#14 10775144#15 10775144#16 10775144#17 10775144#18 -10770840#5 -10770840#4 218316335#0 218316336#5"/>
    </vehicle>
    <vehicle id="68" depart="68.00">
        <route edges="218304770#2 -218304770#2 218304774#0 218304774#1 218304774#2 218304768#1 218304768#2 -218304778#0 10770840#1 10770840#2 10770840#3 10770840#4 10770840#5 -10775144#18 -10775144#17 -10775144#16 -10775144#15 -10775144#14 -10775144#13 -10775144#12 -10775144#11 -10775144#10 -10775144#9 -10775144#8 -10775144#7 -10775144#6 -10775144#5 -10775144#4 -10775144#3 -10775144#2 -10775144#1 296360459#7 296360459#8 296360459#9 296360459#10 296360459#11 296360459#12 296360459#13 -10777275#1 41703037#2 41703037#3 41703037#4 41703037#5 10767264 291271456#2 40343749#1 10766473 301725004 218101654#0 218101654#1 218101815#1"/>
    </vehicle>
    <vehicle id="69" depart="69.00">
        <route edges="-10769914#0 158601758#0 158601758#1 128992729 86700213#0 86700213#1 86700213#2 86700213#3 86700211#0 86700211#1 86700211#2 86700211#3 86700211#4 86700211#5 86700211#6 86700211#7 86700211#8 81164849#0 81164849#1 128992727#0 128992727#1 128992727#2 128992727#3 10771463#0 10771463#1 10771463#2 10771463#3 10771463#4 10767732#0 10767732#1"/>
    </vehicle>
    <vehicle id="70" depart="70.00">
        <route edges="40415783#0 10766484 301725006#0 301725006#1 291271455 86700210#0 86700210#1 86700210#2 86700210#3 86700212 128992728#0 128992728#1 158601756#0 86700217 86697277#3 -218103655#2"/>
    </vehicle>
    <vehicle id="71" depart="71.00">
        <route edges="10780428 -10780428 -10779138#2 10775909#0 10775909#1 -10769914#0 10775514#0 10775514#1 10775514#2 10775514#3 10775514#4 10776280 -10776280"/>
    </vehicle>
    <vehicle id="72" depart="72.00">
        <route edges="-218541233#5 -218541233#4 -218541233#3 -218541233#2 -218541233#1 -218541233#0 10775757#2 10775757#3 10775757#4 86700211#3 86700211#4 86700211#5 86700211#6 10777275#0 10777275#1 -296360459#13 -296360459#12 -296360459#11 -296360459#10 -296360459#9 -296360459#8 -296360459#7 -296360459#6 -296360459#5 10768471 -10768471"/>
    </vehicle>
    <vehicle id="74" depart="74.00">
        <route edges="10775144#4 10775144#5 10775144#6 10775144#7 10775144#8 10775144#9"/>
    </vehicle>
    <vehicle id="75" depart="75.00">
        <route edges="10767732#1 -10767732#1 -10767732#0 -10771463#4 -10771463#3 -10771463#2 -10771463#1 -10771463#0 10774793#0 288534959#11 288534959#12 288534959#13 288534959#14 288534965#0 288534965#1 41703037#0 41703037#1 41703037#2 41703037#3 41703037#4 41703037#5 41703037#6 41703037#7 86700210#0 86700210#1 86700210#2 86700210#3 86700212 128992728#0 128992728#1 10775514#1 10775514#2 10775514#3 10775514#4 10776280 10778469#3 10772662#0"/>
    </vehicle>
    <vehicle id="76" depart="76.00">
        <route edges="10769914#3 -10769914#3 -10769914#2 -10769914#1 -10769914#0 158601758#0 158601758#1 128992729 86700213#0 86700213#1 86700213#2 86700213#3 86700211#0 86700211#1 86700211#2 86700211#3 86700211#4 86700211#5 86700211#6 10777275#0 10777275#1 -296360459#13 -296360459#12 -296360459#11 -296360459#10 -296360459#9 -296360459#8 -296360459#7 10775144#1 10775144#2 10775144#3 10775144#4 10775144#5 10775144#6 10775144#7 10775144#8 10775144#9 10775144#10 10775144#11 10775144#12 10775144#13 10775144#14 10775144#15 10775144#16 10775144#17 10775144#18 -10770840#5 -10770840#4 -10770840#3 -10770840#2 -10770840#1 218304778#0 218304778#1 218304778#2 218304778#3 218304778#4 -296777324"/>
    </vehicle>
    <vehicle id="77" depart="77.00">
        <route edges="10777764#1 -10777764#1 10778154#1 10777482#1 -10778377#0 -10775514#3 -10775514#2 -10775514#1 -10775514#0 158601758#0 158601758#1 128992729 86700213#0 86700213#1 86700213#2 86700213#3 86700211#0 86700211#1 86700211#2 86700211#3 86700211#4 86700211#5 86700211#6 86700211#7 86700211#8 81164849#0 -288534951 288534951"/>
    </vehicle>
    <vehicle id="79" depart="79.00">
        <route edges="10772673#2 -10772673#2 -10772673#1 -10772673#0 288534970 41703037#0 41703037#1 41703037#2 41703037#3 41703037#4 41703037#5 41703037#6 41703037#7 86700210#0 86700210#1 86700210#2 86700210#3 86700212 128992728#0 86700219 10779138#0 10775761#0 10772153#1 10777113#0"/>
    </vehicle>
    <vehicle id="80" depart="80.00">
        <route edges="-10771463#4 -10771463#3 -10771463#2 -10771463#1 -10771463#0 10774793#0 288534959#11 288534959#12 288534959#13 288534959#14 288534965#0 288534965#1 41703037#0 41703037#1 41703037#2 41703037#3 41703037#4 41703037#5 41703037#6 41703037#7 86700210#0 86700210#1 86700210#2 86700210#3 10768229#0 86700213#0 40343747"/>
    </vehicle>
    <vehicle id="81" depart="81.00">