<?xml version="1.0"?>
<!-- generated on 2014-10-12 19:41:59.500000 by $Id: randomTrips.py 16365 2014-05-13 08:50:42Z namdre $ 
  options: -n DowntownOrlando.net.xml -l -e 600 -o DowntownOrlando.trips.xml
-->
<trips>
    <trip id="1" depart="0.00" from="-75459746#2" to="210585006" />
    <trip id="2" depart="2.00" from="-157403419" to="-43990411#4" />
    <trip id="3" depart="3.00" from="44035168#13" to="-156772091#2" />
    <trip id="4" depart="4.00" from="43990457#2" to="50970000" />
    <trip id="5" depart="5.00" from="-11196142#1" to="-213546066" />
    <trip id="6" depart="6.00" from="210585005" to="67523969" />
    <trip id="7" depart="7.00" from="-73538114" to="215885158#3" />
    <trip id="8" depart="8.00" from="53848098#0" to="215486793#0" />
    <trip id="9" depart="9.00" from="-215359983#2" to="47026378#1" />
    <trip id="10" depart="10.00" from="67567288#1" to="50783068#8" />
    <trip id="11" depart="11.00" from="-73538117#1" to="-77431191#1" />
    <trip id="12" depart="12.00" from="196818520" to="213546036" />
    <trip id="13" depart="13.00" from="-11202784" to="-11183171#0" />
    <trip id="14" depart="14.00" from="11176209" to="-11182195#0" />
    <trip id="15" depart="15.00" from="213546028" to="50783070#13" />
    <trip id="16" depart="16.00" from="11188650" to="11185663#1" />
    <trip id="17" depart="17.00" from="44034544" to="215795049#1" />
    <trip id="18" depart="18.00" from="49847026" to="11179939#0" />
    <trip id="19" depart="19.00" from="67571408" to="210585021" />
    <trip id="20" depart="20.00" from="50783091#8" to="-213546022#2" />
    <trip id="21" depart="21.00" from="11192207#1" to="11176415#0" />
    <trip id="22" depart="22.00" from="-213546019#3" to="-127588518#0" />
    <trip id="23" depart="23.00" from="-11204339#1" to="-213579727#1" />
    <trip id="24" depart="24.00" from="-140210324" to="67571406#0" />
    <trip id="25" depart="25.00" from="-215885102#0" to="-11193557#0" />
    <trip id="26" depart="26.00" from="-11203462#1" to="50970301#1" />
    <trip id="27" depart="27.00" from="67567288#0" to="73538113#1" />
    <trip id="28" depart="28.00" from="-69539618" to="-11182195#0" />
    <trip id="29" depart="29.00" from="215671211#1" to="-215486792#0" />
    <trip id="30" depart="30.00" from="80671015#0" to="156772057#1" />
    <trip id="31" depart="31.00" from="50971128#0" to="213579726" />
    <trip id="32" depart="32.00" from="-11184651#1" to="-104081868#1" />
    <trip id="33" depart="33.00" from="-215795051#3" to="67567288#2" />
    <trip id="34" depart="34.00" from="-210585088" to="-47026378#2" />
    <trip id="35" depart="35.00" from="73542491" to="-215359981#0" />
    <trip id="36" depart="36.00" from="-43990457#0" to="-196818520" />
    <trip id="37" depart="37.00" from="11192348#0" to="11189667" />
    <trip id="38" depart="38.00" from="-49846076#9" to="156772057#2" />
    <trip id="39" depart="39.00" from="210328292#15" to="50783092#8" />
    <trip id="40" depart="40.00" from="-80664630#0" to="73538120#1" />
    <trip id="41" depart="41.00" from="73540500#0" to="-11187684#0" />
    <trip id="42" depart="42.00" from="50783091#0" to="-215486793#0" />
    <trip id="43" depart="43.00" from="213546021#1" to="-11193557#3" />
    <trip id="44" depart="44.00" from="-213546035" to="127588557#1" />
    <trip id="45" depart="45.00" from="74098641#4" to="-213546022#4" />
    <trip id="46" depart="46.00" from="-43990411#2" to="-156772091#2" />
    <trip id="47" depart="48.00" from="-11196739#1" to="-73538113#0" />
    <trip id="48" depart="49.00" from="11177800#1" to="213546021#2" />
    <trip id="49" depart="50.00" from="210584954" to="11203462#1" />
    <trip id="50" depart="51.00" from="215885158#0" to="-11204339#1" />
    <trip id="51" depart="51.00" from="215885158#0" to="-11204339#1" />
    <trip id="52" depart="52.00" from="215486794#0" to="-213546028" />
    <trip id="53" depart="53.00" from="-11188446" to="210585141" />
    <trip id="54" depart="54.00" from="213546066" to="213579725" />
    <trip id="55" depart="55.00" from="-156772091#6" to="-11192306" />
    <trip id="56" depart="56.00" from="67569905#1" to="127605064#1" />
    <trip id="57" depart="57.00" from="-44034414" to="213579725" />
    <trip id="58" depart="58.00" from="44034544" to="-215885158#5" />
    <trip id="59" depart="59.00" from="156772057#0" to="49847026" />
    <trip id="60" depart="60.00" from="-210585014" to="-215671206#0" />
    <trip id="61" depart="61.00" from="215795047#4" to="-73538113#0" />
    <trip id="62" depart="62.00" from="-210584954" to="215885166" />
    <trip id="63" depart="63.00" from="-210328292#14" to="11187684#3" />
    <trip id="64" depart="64.00" from="210328292#12" to="213546039" />
    <trip id="65" depart="65.00" from="11194590#0" to="-215359980#0" />
    <trip id="66" depart="66.00" from="213546027#1" to="-73538109#0" />
    <trip id="67" depart="67.00" from="-80659133#1" to="-80671216#1" />
    <trip id="68" depart="68.00" from="213546063#0" to="210584958#2" />
    <trip id="69" depart="69.00" from="67561684" to="-80659133#2" />
    <trip id="70" depart="70.00" from="-11183171#0" to="-210585127" />
    <trip id="71" depart="71.00" from="-156772062#1" to="69539614#1" />
    <trip id="72" depart="72.00" from="73538117#1" to="-156772062#0" />
    <trip id="73" depart="73.00" from="-43990411#6" to="-215671206#0" />
    <trip id="74" depart="74.00" from="-80659106#7" to="127588487" />
    <trip id="75" depart="75.00" from="-215359981#0" to="-156772091#2" />
    <trip id="76" depart="75.00" from="-215359981#0" to="-156772091#2" />
    <trip id="77" depart="77.00" from="50969827#0" to="11189528#1" />
    <trip id="78" depart="78.00" from="80664414#7" to="11184651#1" />
    <trip id="79" depart="79.00" from="56027396#15" to="-11192348#2" />
    <trip id="80" depart="80.00" from="50969827#0" to="-11201609#5" />
    <trip id="81" depart="81.00" from="-47026382" to="-11181848" />
    <trip id="82" depart="82.00" from="-11202783" to="-11184651#1" />
    <trip id="83" depart="83.00" from="-215795051#3" to="11186209#1" />
    <trip id="84" depart="84.00" from="-11185668" to="-127605064#0" />
    <trip id="85" depart="85.00" from="67596637" to="11196142#1" />
    <trip id="86" depart="86.00" from="11182195#0" to="215671204#1" />
    <trip id="87" depart="87.00" from="215344910#2" to="-210585132" />
    <trip id="88" depart="88.00" from="67571408" to="56027396#10" />
    <trip id="89" depart="89.00" from="44035168#12" to="-11189528#0" />
    <trip id="90" depart="90.00" from="-213579725" to="-73538120#1" />
    <trip id="91" depart="91.00" from="-210585010" to="50970000" />
    <trip id="92" depart="92.00" from="-215359981#0" to="215795051#2" />
    <trip id="93" depart="93.00" from="47099094" to="80671214#1" />
    <trip id="94" depart="95.00" from="67567288#4" to="-11197150" />
    <trip id="95" depart="95.00" from="67567288#4" to="-11197150" />
    <trip id="96" depart="96.00" from="215359981#1" to="-73538117#3" />
    <trip id="97" depart="97.00" from="-11179409#6" to="-73540483" />
    <trip id="98" depart="98.00" from="-44034544" to="215671204#1" />
    <trip id="99" depart="99.00" from="-11187684#3" to="44035118#6" />
    <trip id="100" depart="101.00" from="44035118#7" to="67567288#0" />
    <trip id="101" depart="101.00" from="44035118#7" to="67567288#0" />
    <trip id="102" depart="102.00" from="-67567167#1" to="49846076#9" />
    <trip id="103" depart="103.00" from="-215795051#1" to="-213546022#1" />
    <trip id="104" depart="104.00" from="213546018" to="215795047#2" />
    <trip id="105" depart="105.00" from="11197290#2" to="50783092#11" />
    <trip id="106" depart="106.00" from="-11185668" to="-11193273#1" />
    <trip id="107" depart="107.00" from="43990457#2" to="-11176209" />
    <trip id="108" depart="108.00" from="-44076815" to="-11192305" />
    <trip id="109" depart="109.00" from="-67567288#1" to="215486794#1" />
    <trip id="110" depart="110.00" from="67571406#3" to="-49846076#6" />
    <trip id="111" depart="111.00" from="210328291#3" to="215885167" />
    <trip id="112" depart="112.00" from="140210324" to="-213546026" />
    <trip id="113" depart="113.00" from="215795020#3" to="-213546021#0" />
    <trip id="114" depart="114.00" from="215795020#3" to="-213546021#0" />
    <trip id="115" depart="115.00" from="50783090#0" to="-11187684#1" />
    <trip id="116" depart="116.00" from="-156772057#2" to="80659133#3" />
    <trip id="117" depart="117.00" from="-156772057#2" to="80659133#3"  />
    <trip id="118" depart="118.00" from="-215885158#1" to="11180285#1" />
    <trip id="119" depart="119.00" from="50969998#2" to="215486793#1" />
    <trip id="120" depart="120.00" from="-11176415#1" to="11201609#4" />
    <trip id="121" depart="121.00" from="67567167#1" to="-11197292" />
    <trip id="122" depart="122.00" from="-213579725" to="213546021#1" />
    <trip id="123" depart="123.00" from="146831008#0" to="11196142#1" />
    <trip id="124" depart="124.00" from="-215671204#0" to="-215486793#0" />
    <trip id="125" depart="125.00" from="-73540484" to="-215885158#2" />
    <trip id="126" depart="126.00" from="215795047#4" to="-11193273#0" />
    <trip id="127" depart="127.00" from="-156772057#2" to="80659133#3"  />
    <trip id="128" depart="128.00" from="-73540484" to="-215885158#2" />
    <trip id="129" depart="129.00" from="-73540483" to="210585010" />
    <trip id="130" depart="130.00" from="213546064#0" to="75248722" />
    <trip id="131" depart="131.00" from="11186453#1" to="210328291#0" />
    <trip id="132" depart="132.00" from="73538117#3" to="11203462#1" />
    <trip id="133" depart="133.00" from="-73538119#4" to="73538117#0" />
    <trip id="134" depart="134.00" from="67571407" to="-11181964#1" />
    <trip id="135" depart="135.00" from="-210328292#8" to="73538114" />
    <trip id="136" depart="136.00" from="-127588487" to="75459746#1" />
    <trip id="137" depart="137.00" from="-73540484" to="-215885158#2" />
    <trip id="138" depart="138.00" from="215885158#0" to="-156772091#0" />
    <trip id="139" depart="139.00" from="-11201375" to="127588487" />
    <trip id="140" depart="140.00" from="-157848803" to="-80776632#3" />
    <trip id="141" depart="141.00" from="44035020#1" to="-44034544" />
    <trip id="142" depart="142.00" from="210585013" to="-11193273#2" />
    <trip id="143" depart="143.00" from="-73531003" to="215885158#1" />
    <trip id="144" depart="144.00" from="50970300#3" to="-11186209#1" />
    <trip id="145" depart="145.00" from="44035168#11" to="67571408" />
    <trip id="146" depart="146.00" from="210584958#1" to="67567288#2" />
    <trip id="147" depart="147.00" from="215795047#5" to="210328292#8" />
    <trip id="148" depart="148.00" from="50969827#6" to="-80671015#0" />
    <trip id="149" depart="149.00" from="-11188446" to="47026382" />
    <trip id="150" depart="150.00" from="-215885102#1" to="-73541769#1" />
    <trip id="151" depart="151.00" from="50783068#6" to="156772091#0" />
    <trip id="152" depart="152.00" from="80670448#2" to="-75459746#4" />
    <trip id="153" depart="153.00" from="-210584953" to="-215359980#1" />
    <trip id="154" depart="154.00" from="-215486793#1" to="210585132" />
    <trip id="155" depart="155.00" from="-156772091#6" to="-213546027#2" />
    <trip id="156" depart="156.00" from="213579727#0" to="11193273#0" />
    <trip id="157" depart="157.00" from="-127588487" to="75459746#1" />
    <trip id="158" depart="158.00" from="-156772055" to="156772057#0" />
    <trip id="159" depart="159.00" from="-75459746#0" to="80659133#2" />
    <trip id="160" depart="160.00" from="215344910#0" to="-11176209" />
    <trip id="161" depart="161.00" from="-215359983#2" to="-73538109#1" />
    <trip id="162" depart="162.00" from="213546039" to="50783091#13" />
    <trip id="163" depart="163.00" from="11194590#0" to="-213546027#0" />
    <trip id="164" depart="164.00" from="-73538120#0" to="215795020#1" />
    <trip id="165" depart="165.00" from="-213546063#0" to="-49847026" />
    <trip id="166" depart="166.00" from="77431187#0" to="50970300#3" />
    <trip id="167" depart="167.00" from="213546035" to="-11203462#0" />
    <trip id="168" depart="168.00" from="-104081861#1" to="-215671204#1" />
    <trip id="169" depart="169.00" from="213579726" to="-215795020#1" />
    <trip id="170" depart="170.00" from="-43990411#1" to="216298907#1" />
    <trip id="171" depart="171.00" from="210585133" to="47026379" />
    <trip id="172" depart="172.00" from="80651818" to="-11181964#1" />
    <trip id="173" depart="173.00" from="-67567288#2" to="213546019#0" />
    <trip id="174" depart="174.00" from="215359983#0" to="215795055#1" />
    <trip id="175" depart="175.00" from="50969998#2" to="127605064#0" />
    <trip id="176" depart="176.00" from="210585013" to="11179409#6" />
    <trip id="177" depart="177.00" from="-215885158#5" to="215671204#0" />
    <trip id="178" depart="178.00" from="127588487" to="-47026378#1" />
    <trip id="179" depart="179.00" from="-43990411#2" to="73540483" />
    <trip id="180" depart="180.00" from="-73538117#1" to="-210584957" />
    <trip id="181" depart="181.00" from="-67567288#1" to="56027396#3" />
    <trip id="182" depart="182.00" from="-75248722" to="140210324" />
    <trip id="183" depart="183.00" from="-11205456#1" to="157403432" />
    <trip id="184" depart="184.00" from="11193273#0" to="215344910#4" />
    <trip id="185" depart="185.00" from="-11179746" to="-11177970#1" />
    <trip id="186" depart="186.00" from="-215344910#2" to="75459746#1" />
    <trip id="187" depart="187.00" from="80651818" to="215795047#5" />
    <trip id="188" depart="188.00" from="11189528#1" to="215795020#0" />
    <trip id="189" depart="189.00" from="-215359981#0" to="-73538113#1" />
    <trip id="190" depart="190.00" from="-156772062#1" to="11183171#1" />
    <trip id="191" depart="191.00" from="127588557#0" to="-11184651#1" />
    <trip id="192" depart="192.00" from="-43990411#2" to="73540483" />
    <trip id="193" depart="193.00" from="77431190#1" to="67567288#2" />
    <trip id="194" depart="194.00" from="75259994#2" to="-213546027#1" />
    <trip id="195" depart="195.00" from="-215885158#0" to="-73538113#2" />
    <trip id="196" depart="196.00" from="216298907#0" to="75248722" />
    <trip id="197" depart="197.00" from="210585134" to="-73538117#3" />
    <trip id="198" depart="198.00" from="-44034544" to="156772062#1" />
    <trip id="199" depart="199.00" from="-215885158#4" to="215359982" />
    <trip id="200" depart="200.00" from="127588557#0" to="47026378#2" />
    <trip id="201" depart="201.00" from="67567288#4" to="213546022#0" />
    <trip id="202" depart="202.00" from="-140210324" to="73538119#0" />
    <trip id="203" depart="203.00" from="11181663#1" to="215486792#0" />
    <trip id="204" depart="204.00" from="157403432" to="50783079#9" />
    <trip id="205" depart="205.00" from="-11180285#5" to="75259994#4" />
    <trip id="206" depart="206.00" from="215486793#0" to="11180285#2" />
    <trip id="207" depart="207.00" from="43990457#1" to="-80651833#2" />
    <trip id="208" depart="208.00" from="213546021#1" to="210328292#8" />
    <trip id="209" depart="209.00" from="11180285#5" to="73542494" />
    <trip id="210" depart="210.00" from="-49846076#11" to="210328291#2" />
    <trip id="211" depart="211.00" from="44075464#0" to="213546022#4" />
    <trip id="212" depart="212.00" from="67571407" to="210584958#1" />
    <trip id="213" depart="213.00" from="11193273#0" to="210328292#3" />
    <trip id="214" depart="214.00" from="50783092#10" to="-44034414" />
    <trip id="215" depart="215.00" from="-11188713" to="11190133#1" />
    <trip id="216" depart="216.00" from="11187684#1" to="50783077" />
    <trip id="217" depart="217.00" from="-11196649" to="-73540480#0" />
    <trip id="218" depart="218.00" from="73538121#0" to="50970302#6" />
    <trip id="219" depart="219.00" from="215885158#5" to="-53848099#1" />
    <trip id="220" depart="220.00" from="210328292#4" to="-73538104" />
    <trip id="221" depart="221.00" from="43990457#1" to="-80651833#2" />
    <trip id="222" depart="222.00" from="-127588489#0" to="11184651#1" />
    <trip id="223" depart="223.00" from="47026382" to="-215359983#0" />
    <trip id="224" depart="224.00" from="-11181964#0" to="11194590#0" />
    <trip id="225" depart="225.00" from="-80776632#3" to="67567288#2" />
    <trip id="226" depart="226.00" from="11201609#4" to="67567288#4" />
    <trip id="227" depart="227.00" from="213546026" to="215344910#4" />
    <trip id="228" depart="228.00" from="80662305#1" to="11185668" />
    <trip id="229" depart="229.00" from="80776637" to="-11179746" />
    <trip id="230" depart="230.00" from="-43990411#6" to="-11187684#2" />
    <trip id="231" depart="231.00" from="11197150" to="215795051#1" />
    <trip id="232" depart="232.00" from="43990457#1" to="-80651833#2" />
    <trip id="233" depart="233.00" from="213546043" to="73540498#2" />
    <trip id="234" depart="234.00" from="11202784" to="-210585122#0" />
    <trip id="235" depart="235.00" from="213546026" to="215344910#4" />
    <trip id="236" depart="236.00" from="11192348#1" to="-156772091#3" />
    <trip id="237" depart="237.00" from="50783068#6" to="11188947#0" />
    <trip id="238" depart="238.00" from="-11185558#1" to="-215885158#1" />
    <trip id="239" depart="239.00" from="213546026" to="-11180285#5" />
    <trip id="240" depart="240.00" from="-73540498#0" to="67523969" />
    <trip id="241" depart="241.00" from="-11189666" to="50783092#8" />
    <trip id="242" depart="242.00" from="127588520" to="210585120#1" />
    <trip id="243" depart="243.00" from="-215344910#0" to="-73538104" />
    <trip id="244" depart="244.00" from="11192348#3" to="11180285#5" />
    <trip id="245" depart="245.00" from="-67567288#0" to="215671214#0" />
    <trip id="246" depart="246.00" from="56027396#7" to="11179242#1" />
    <trip id="247" depart="247.00" from="73540484" to="213546039" />
    <trip id="248" depart="248.00" from="213579727#1" to="11189528#0" />
    <trip id="249" depart="249.00" from="-215958376" to="11192348#2" />
    <trip id="250" depart="250.00" from="-43990411#6" to="-213546036" />
    <trip id="251" depart="251.00" from="127605025#1" to="11176209" />
    <trip id="252" depart="252.00" from="-11197290#2" to="-73538114" />
    <trip id="253" depart="253.00" from="-127588518#3" to="-215795051#5" />
    <trip id="254" depart="254.00" from="-53848099#0" to="50970301#0" />
    <trip id="255" depart="255.00" from="-215359980#2" to="127605025#1" />
    <trip id="256" depart="256.00" from="11179746" to="50783068#8" />
    <trip id="257" depart="257.00" from="-11197290#0" to="67567167#0" />
    <trip id="258" depart="258.00" from="210328292#13" to="-73531003" />
    <trip id="259" depart="259.00" from="80664414#1" to="-53848098#0" />
    <trip id="260" depart="260.00" from="50783068#16" to="-215359980#1" />
    <trip id="261" depart="261.00" from="-11204339#5" to="80875426" />
    <trip id="262" depart="262.00" from="50969827#11" to="67571406#3" />
    <trip id="263" depart="263.00" from="-75459746#3" to="-73540484" />
    <trip id="264" depart="264.00" from="-140210324" to="156772091#3" />
    <trip id="265" depart="265.00" from="11192348#0" to="-213546027#0" />
    <trip id="266" depart="266.00" from="80664633" to="50970003#5" />
    <trip id="267" depart="267.00" from="-80659133#1" to="73540500#4" />
    <trip id="268" depart="268.00" from="49846076#6" to="-67567288#0" />
    <trip id="269" depart="269.00" from="11180285#1" to="11188650" />
    <trip id="270" depart="270.00" from="-44076815" to="50970301#6" />
    <trip id="271" depart="271.00" from="-156772062#0" to="-11177970#0" />
    <trip id="272" depart="272.00" from="80776637" to="-73540500#4" />
    <trip id="273" depart="273.00" from="50783070#1" to="-11179939#0" />
    <trip id="274" depart="274.00" from="-11180285#5" to="69539614#1" />
    <trip id="275" depart="275.00" from="50783086#0" to="213546022#1" />
    <trip id="276" depart="276.00" from="80664634" to="56027396#15" />
    <trip id="277" depart="277.00" from="-11186453#1" to="50969827#8" />
    <trip id="278" depart="278.00" from="73538120#0" to="215885158#2" />
    <trip id="279" depart="279.00" from="80651833#1" to="215359983#2" />
    <trip id="280" depart="280.00" from="210328290#2" to="-215359983#2" />
    <trip id="281" depart="281.00" from="213546029#1" to="80659133#1" />
    <trip id="282" depart="282.00" from="11181663#1" to="210328292#13" />
    <trip id="283" depart="283.00" from="11193273#2" to="-11197290#1" />
    <trip id="284" depart="284.00" from="-44076815" to="156772069" />
    <trip id="285" depart="285.00" from="50783079#9" to="-11180285#2" />
    <trip id="286" depart="286.00" from="43990457#0" to="213546046#2" />
    <trip id="287" depart="287.00" from="11193273#2" to="-11197290#1" />
    <trip id="288" depart="288.00" from="56027396#0" to="47026378#3" />
    <trip id="289" depart="289.00" from="73538119#4" to="11179939#0" />
    <trip id="290" depart="290.00" from="-11193557#0" to="11187684#2" />
    <trip id="291" depart="291.00" from="67596637" to="50969827#8" />
    <trip id="292" depart="292.00" from="213546022#3" to="43990411#5" />
    <trip id="293" depart="293.00" from="215885158#1" to="-11180285#4" />
    <trip id="294" depart="294.00" from="67596637" to="50969827#8" />
    <trip id="295" depart="295.00" from="215795047#3" to="210328292#15" />
    <trip id="296" depart="296.00" from="49847026" to="146831008#1" />
    <trip id="297" depart="297.00" from="-11192306" to="104081861#1" />
    <trip id="298" depart="298.00" from="11180285#0" to="127605070#0" />
    <trip id="299" depart="299.00" from="56027396#5" to="11188446" />
    <trip id="300" depart="300.00" from="-213546022#5" to="-210585119" />
    <trip id="301" depart="301.00" from="50783092#10" to="-80651833#0" />
    <trip id="302" depart="302.00" from="80652724" to="73538101" />
    <trip id="303" depart="303.00" from="50969827#4" to="77431185#1" />
    <trip id="304" depart="304.00" from="-73538109#0" to="-127605069" />
    <trip id="305" depart="305.00" from="-213546036" to="156772057#2" />
    <trip id="306" depart="306.00" from="-156772091#4" to="-11176217" />
    <trip id="307" depart="307.00" from="-11176209" to="-104081868#1" />
    <trip id="308" depart="308.00" from="156772091#2" to="11188947#0" />
    <trip id="309" depart="309.00" from="73538120#2" to="213546066" />
    <trip id="310" depart="310.00" from="-67523969" to="127588518#5" />
    <trip id="311" depart="311.00" from="213579727#0" to="-11202784" />
    <trip id="312" depart="312.00" from="-11186206" to="50970300#0" />
    <trip id="313" depart="313.00" from="-43990411#6" to="11188947#0" />
    <trip id="314" depart="314.00" from="-11179939#0" to="-80659113#0" />
    <trip id="315" depart="315.00" from="210328292#4" to="80659128#1" />
    <trip id="316" depart="316.00" from="215359980#1" to="11180285#4" />
    <trip id="317" depart="317.00" from="-156772057#2" to="215671204#0" />
    <trip id="318" depart="318.00" from="56027396#7" to="80776632#2" />
    <trip id="319" depart="319.00" from="156772091#2" to="213546021#0" />
    <trip id="320" depart="320.00" from="-11188446" to="-11179409#0" />
    <trip id="321" depart="321.00" from="67571406#0" to="-53848098#0" />
    <trip id="322" depart="322.00" from="-11197290#0" to="-53848098#1" />
    <trip id="323" depart="323.00" from="-156772057#2" to="77431190#1" />
    <trip id="324" depart="324.00" from="210585122#0" to="11189667" />
    <trip id="325" depart="325.00" from="-215885169" to="127605069" />
    <trip id="326" depart="326.00" from="-210585143" to="-11184651#1" />
    <trip id="327" depart="327.00" from="80664633" to="210328292#8" />
    <trip id="328" depart="328.00" from="-210585134" to="156772091#6" />
    <trip id="329" depart="329.00" from="-215671204#0" to="-11192348#2" />
    <trip id="330" depart="330.00" from="-73538114" to="-11179545" />
    <trip id="331" depart="331.00" from="-11185558#0" to="80776632#1" />
    <trip id="332" depart="332.00" from="210328291#0" to="11188650" />
    <trip id="333" depart="333.00" from="50969827#4" to="-11198919" />
    <trip id="334" depart="334.00" from="44075492" to="215359983#1" />
    <trip id="335" depart="335.00" from="215486794#0" to="-80776637" />
    <trip id="336" depart="336.00" from="215344910#2" to="44035168#12" />
    <trip id="337" depart="337.00" from="44035168#0" to="75248722" />
    <trip id="338" depart="338.00" from="-196818520" to="-210585006" />
    <trip id="339" depart="339.00" from="213546019#2" to="50783086#14" />
    <trip id="340" depart="340.00" from="-44076815" to="-215795020#2" />
    <trip id="341" depart="341.00" from="50783068#16" to="-215671214#1" />
    <trip id="342" depart="342.00" from="-11179746" to="43990508#3" />
    <trip id="343" depart="343.00" from="11185558#0" to="-215359980#2" />
    <trip id="344" depart="344.00" from="-210328292#15" to="73538102" />
    <trip id="345" depart="345.00" from="-11187684#2" to="-210585013" />
    <trip id="346" depart="346.00" from="-213546067" to="127605070#0" />
    <trip id="347" depart="347.00" from="-73540484" to="-215359981#0" />
    <trip id="348" depart="348.00" from="-67569905#0" to="213546022#3" />
    <trip id="349" depart="349.00" from="73538117#3" to="127605025#1" />
    <trip id="350" depart="350.00" from="-104081862#1" to="11188947#0" />
    <trip id="351" depart="351.00" from="-127588489#2" to="156772057#0" />
    <trip id="352" depart="352.00" from="11188650" to="-213546035" />
    <trip id="353" depart="353.00" from="73538119#2" to="215795055#1" />
    <trip id="354" depart="354.00" from="11188446" to="11185663#0" />
    <trip id="355" depart="355.00" from="56027396#5" to="-210585009" />
    <trip id="356" depart="356.00" from="11196142#2" to="-73538117#1" />
    <trip id="357" depart="357.00" from="-53848099#1" to="43990411#1" />
    <trip id="358" depart="358.00" from="-127588489#1" to="73538114" />
    <trip id="359" depart="359.00" from="11187684#0" to="-77431185#1" />
    <trip id="360" depart="360.00" from="-156772057#2" to="157403432" />
    <trip id="361" depart="361.00" from="215671204#0" to="104081862#0" />
    <trip id="362" depart="362.00" from="-11193557#3" to="-80671216#2" />
    <trip id="363" depart="363.00" from="67571406#3" to="44035168#11" />
    <trip id="364" depart="364.00" from="80659113#0" to="80651855#1" />
    <trip id="365" depart="365.00" from="11176217" to="47026378#1" />
    <trip id="366" depart="366.00" from="11187684#3" to="73538102" />
    <trip id="367" depart="367.00" from="-11188446" to="213546035" />
    <trip id="368" depart="368.00" from="-73542491" to="213546022#1" />
    <trip id="369" depart="369.00" from="11193557#3" to="-11179939#1" />
    <trip id="370" depart="370.00" from="11192306" to="-215486794#0" />
    <trip id="371" depart="371.00" from="127605064#0" to="-215671206#0" />
    <trip id="372" depart="372.00" from="56027396#4" to="-11192348#2" />
    <trip id="373" depart="373.00" from="73538104" to="-11192348#0" />
    <trip id="374" depart="374.00" from="47026378#1" to="213546039" />
    <trip id="375" depart="375.00" from="215958376" to="11201375" />
    <trip id="376" depart="376.00" from="213579727#1" to="67596638" />
    <trip id="377" depart="377.00" from="215795020#0" to="73538117#0" />
    <trip id="378" depart="378.00" from="11204339#1" to="44035168#11" />
    <trip id="379" depart="379.00" from="-127588487" to="11204339#9" />
    <trip id="380" depart="380.00" from="-73540480#1" to="47026380#1" />
    <trip id="381" depart="381.00" from="127605070#0" to="-215885158#5" />
    <trip id="382" depart="382.00" from="50783068#16" to="156772062#1" />
    <trip id="383" depart="383.00" from="49846076#9" to="43990411#0" />
    <trip id="384" depart="384.00" from="-73540480#1" to="47026380#1" />
    <trip id="385" depart="385.00" from="156772057#0" to="-67569905#0" />
    <trip id="386" depart="386.00" from="-213579725" to="-213546019#5" />
    <trip id="387" depart="387.00" from="-11179939#0" to="11197150" />
    <trip id="388" depart="388.00" from="-215671204#0" to="11177970#0" />
    <trip id="389" depart="389.00" from="11187684#0" to="44035118#7" />
    <trip id="390" depart="390.00" from="215671204#0" to="11184651#1" />
    <trip id="391" depart="391.00" from="-215359983#2" to="-215885158#3" />
    <trip id="392" depart="392.00" from="11193647#9" to="-11179409#5" />
    <trip id="393" depart="393.00" from="-213546035" to="-215885158#3" />
    <trip id="394" depart="394.00" from="47026379" to="50783068#16" />
    <trip id="395" depart="395.00" from="-11199161#1" to="-67567288#4" />
    <trip id="396" depart="396.00" from="-67561688#1" to="-11180285#5" />
    <trip id="397" depart="397.00" from="210328292#5" to="-11180285#5" />
    <trip id="398" depart="398.00" from="11186209#0" to="210585012" />
    <trip id="399" depart="399.00" from="210585012" to="146831017" />
    <trip id="400" depart="400.00" from="-11193647#2" to="75459746#3" />
    <trip id="401" depart="401.00" from="213546027#2" to="56027396#15" />
    <trip id="402" depart="402.00" from="210585128" to="80671214#1" />
    <trip id="403" depart="403.00" from="-156772091#6" to="-11180285#0" />
    <trip id="404" depart="404.00" from="-213546027#2" to="50783079#6" />
    <trip id="405" depart="405.00" from="80659133#3" to="-127588487" />
    <trip id="406" depart="406.00" from="80670448#1" to="11188713" />
    <trip id="407" depart="407.00" from="-210585013" to="-11201375" />
    <trip id="408" depart="408.00" from="-11203462#1" to="50970303#6" />
    <trip id="409" depart="409.00" from="11183171#0" to="11186209#1" />
    <trip id="410" depart="410.00" from="73538117#0" to="80659128#1" />
    <trip id="411" depart="411.00" from="43990411#4" to="-11182195#0" />
    <trip id="412" depart="412.00" from="73538121#0" to="50783092#9" />
    <trip id="413" depart="413.00" from="50970003#5" to="50783068#6" />