<?xml version="1.0"?>

<!-- generated on Mon Nov 25 18:39:49 2013 by SUMO duarouter Version 0.16.0
<?xml version="1.0" encoding="UTF-8"?>

<configuration xmlns:xsi="http://www.w3.org/2001/XMLSchema-instance" xsi:noNamespaceSchemaLocation="http://sumo.sf.net/xsd/duarouterConfiguration.xsd">

    <input>
        <net-file value="sumotest.net.xml"/>
        <trip-files value="sumotest.trips.xml"/>
    </input>

    <output>
        <output-file value="sumotest.rou.xml"/>
    </output>

    <processing>
        <ignore-errors value="true"/>
    </processing>

</configuration>
-->

<routes xmlns:xsi="http://www.w3.org/2001/XMLSchema-instance" xsi:noNamespaceSchemaLocation="http://sumo.sf.net/xsd/routes_file.xsd">
    <vehicle id="1" depart="6.00"><route edges="e5 e20 e21 e10"/></vehicle>
    <vehicle id="2" depart="7.00"><route edges="e10"/></vehicle>
    <vehicle id="3" depart="10.00"><route edges="e9 e10"/></vehicle>
    <vehicle id="4" depart="11.00"><route edges="e14 e5 e6 e25"/></vehicle>
	<vehicle id="5" depart="13.00"><route edges="e2 e23 e24"/></vehicle>
    <vehicle id="6" depart="14.00"><route edges="e1 e18 e19 e20 e21 e10"/></vehicle>
    <vehicle id="7" depart="15.00"><route edges="e11 e12"/></vehicle>
    <vehicle id="8" depart="16.00"><route edges="e2 e23 e24 e25 e26 e27"/></vehicle>
    <vehicle id="9" depart="17.00"><route edges="e7 e8 e26"/></vehicle>
    <vehicle id="10" depart="18.00"><route edges="e3 e19 e20 e21 e10"/></vehicle>
    <vehicle id="11" depart="19.00"><route edges="e17 e11 e12"/></vehicle>
    <vehicle id="12" depart="20.00"><route edges="e1 e18 e19 e20 e21 e22 e12"/></vehicle>
    <vehicle id="13" depart="21.00"><route edges="e7 e21 e22 e12"/></vehicle>
    <vehicle id="14" depart="23.00"><route edges="e1 e18 e19 e20 e8"/></vehicle>
    <vehicle id="15" depart="24.00"><route edges="e7 e21 e22"/></vehicle>
    <vehicle id="16" depart="26.00"><route edges="e13 e14 e5 e6 e25"/></vehicle>
    <vehicle id="17" depart="28.00"><route edges="e18 e4"/></vehicle>
    <vehicle id="18" depart="30.00"><route edges="e3 e19 e20 e8"/></vehicle>
    <vehicle id="19" depart="32.00"><route edges="e8"/></vehicle>
    <vehicle id="20" depart="34.00"><route edges="e1 e2 e23"/></vehicle>
    <vehicle id="21" depart="36.00"><route edges="e1 e18 e19 e20 e21"/></vehicle>
    <vehicle id="22" depart="38.00"><route edges="e18 e4"/></vehicle>
    <vehicle id="23" depart="40.00"><route edges="e1 e18 e19 e6"/></vehicle>
    <vehicle id="24" depart="42.00"><route edges="e5"/></vehicle>
    <vehicle id="25" depart="44.00"><route edges="e16 e9 e22 e12"/></vehicle>
    <vehicle id="26" depart="46.00"><route edges="e8 e26"/></vehicle>
    <vehicle id="27" depart="48.00"><route edges="e1 e18 e4 e24 e25 e26"/></vehicle>
    <vehicle id="28" depart="50.00"><route edges="e2 e23"/></vehicle>
    <vehicle id="29" depart="52.00"><route edges="e14 e15 e7"/></vehicle>
    <vehicle id="30" depart="54.00"><route edges="e13 e3 e4"/></vehicle>
    <vehicle id="31" depart="56.00"><route edges="e3 e19 e20 e8"/></vehicle>
    <vehicle id="32" depart="58.00"><route edges="e1 e18 e19"/></vehicle>
    <vehicle id="33" depart="60.00"><route edges="e1 e18 e4"/></vehicle>
    <vehicle id="34" depart="62.00"><route edges="e10"/></vehicle>
    <vehicle id="35" depart="64.00"><route edges="e19 e20 e21 e22 e12"/></vehicle>
    <vehicle id="36" depart="66.00"><route edges="e5 e20 e21 e22 e12"/></vehicle>
    <vehicle id="37" depart="66.00"><route edges="e15 e16 e9 e22 e12"/></vehicle>
    <vehicle id="38" depart="68.00"><route edges="e1 e18 e19 e20 e8"/></vehicle>
    <vehicle id="39" depart="70.00"><route edges="e5 e6"/></vehicle>
    <vehicle id="40" depart="72.00"><route edges="e14 e15 e16 e17"/></vehicle>
    <vehicle id="41" depart="74.00"><route edges="e7 e21 e22 e12"/></vehicle>
    <vehicle id="42" depart="76.00"><route edges="e14 e15 e7 e21 e10 e27"/></vehicle>
    <vehicle id="43" depart="78.00"><route edges="e7 e21 e10 e27"/></vehicle>
    <vehicle id="44" depart="80.00"><route edges="e14 e15 e16 e9"/></vehicle>
    <vehicle id="45" depart="82.00"><route edges="e5"/></vehicle>
    <vehicle id="46" depart="84.00"><route edges="e13 e14 e15 e16 e17 e11"/></vehicle>
    <vehicle id="47" depart="86.00"><route edges="e8 e26 e27"/></vehicle>
    <vehicle id="48" depart="88.00"><route edges="e3 e19 e6"/></vehicle>
    <vehicle id="49" depart="90.00"><route edges="e24 e25 e26 e27"/></vehicle>
    <vehicle id="50" depart="92.00"><route edges="e13 e3 e4"/></vehicle>
    <vehicle id="51" depart="94.00"><route edges="e18 e19"/></vehicle>
    <vehicle id="52" depart="96.00"><route edges="e15 e7 e8 e26"/></vehicle>
    <vehicle id="53" depart="98.00"><route edges="e3 e19 e20 e21 e10"/></vehicle>
    <vehicle id="54" depart="100.00"><route edges="e2"/></vehicle>
    <vehicle id="55" depart="102.00"><route edges="e19 e20 e8"/></vehicle>
    <vehicle id="56" depart="104.00"><route edges="e6 e25"/></vehicle>
    <vehicle id="57" depart="106.00"><route edges="e1 e18 e19 e20 e21"/></vehicle>
    <vehicle id="58" depart="108.00"><route edges="e26"/></vehicle>
    <vehicle id="59" depart="110.00"><route edges="e17 e11"/></vehicle>
    <vehicle id="60" depart="112.00"><route edges="e13 e14 e5 e6"/></vehicle>
    <vehicle id="61" depart="114.00"><route edges="e3"/></vehicle>
    <vehicle id="62" depart="116.00"><route edges="e16 e9 e10"/></vehicle>
    <vehicle id="63" depart="118.00"><route edges="e21 e22 e12"/></vehicle>
    <vehicle id="64" depart="120.00"><route edges="e1 e18 e4 e24 e25 e26"/></vehicle>
    <vehicle id="65" depart="122.00"><route edges="e7 e8 e26"/></vehicle>
    <vehicle id="66" depart="124.00"><route edges="e17"/></vehicle>
    <vehicle id="67" depart="126.00"><route edges="e13 e14 e5 e20 e21 e22 e12"/></vehicle>
    <vehicle id="68" depart="128.00"><route edges="e14 e15 e7 e21 e22 e12"/></vehicle>
    <vehicle id="69" depart="130.00"><route edges="e9 e10 e27"/></vehicle>
    <vehicle id="70" depart="132.00"><route edges="e13 e14 e5 e6"/></vehicle>
    <vehicle id="71" depart="134.00"><route edges="e17 e11 e12"/></vehicle>
    <vehicle id="72" depart="136.00"><route edges="e25"/></vehicle>
    <vehicle id="73" depart="138.00"><route edges="e3 e19 e20 e21"/></vehicle>
    <vehicle id="74" depart="140.00"><route edges="e13 e14 e15 e16 e17 e11"/></vehicle>
    <vehicle id="75" depart="142.00"><route edges="e9 e22 e12"/></vehicle>
    <vehicle id="76" depart="144.00"><route edges="e14 e5"/></vehicle>
    <vehicle id="77" depart="146.00"><route edges="e7 e21 e10"/></vehicle>
    <vehicle id="78" depart="148.00"><route edges="e3 e19 e6"/></vehicle>
    <vehicle id="79" depart="150.00"><route edges="e16"/></vehicle>
    <vehicle id="80" depart="152.00"><route edges="e1 e18 e19 e6"/></vehicle>
    <vehicle id="81" depart="154.00"><route edges="e7 e8"/></vehicle>
    <vehicle id="82" depart="156.00"><route edges="e5 e20 e21 e10"/></vehicle>
    <vehicle id="83" depart="158.00"><route edges="e4"/></vehicle>
    <vehicle id="84" depart="160.00"><route edges="e9 e22 e12"/></vehicle>
    <vehicle id="85" depart="162.00"><route edges="e22 e12"/></vehicle>
    <vehicle id="86" depart="164.00"><route edges="e3 e4"/></vehicle>
    <vehicle id="87" depart="166.00"><route edges="e1 e18 e19 e20 e8"/></vehicle>
    <vehicle id="88" depart="168.00"><route edges="e16 e17"/></vehicle>
    <vehicle id="89" depart="170.00"><route edges="e14 e15 e7 e8 e26"/></vehicle>
    <vehicle id="90" depart="172.00"><route edges="e3 e19 e6 e25 e26 e27"/></vehicle>
    <vehicle id="91" depart="174.00"><route edges="e5 e20 e21 e22 e12"/></vehicle>
    <vehicle id="92" depart="176.00"><route edges="e5 e20 e21 e22 e12"/></vehicle>
    <vehicle id="93" depart="178.00"><route edges="e1 e18 e4 e24 e25"/></vehicle>
    <vehicle id="94" depart="180.00"><route edges="e16 e9 e22"/></vehicle>
    <vehicle id="95" depart="182.00"><route edges="e8 e26"/></vehicle>
    <vehicle id="96" depart="184.00"><route edges="e3 e19 e6 e25 e26 e27"/></vehicle>
    <vehicle id="97" depart="186.00"><route edges="e13 e14 e5 e20 e21"/></vehicle>
    <vehicle id="98" depart="188.00"><route edges="e13 e14 e5 e6"/></vehicle>
    <vehicle id="99" depart="190.00"><route edges="e1 e18 e19 e20 e21 e22 e12"/></vehicle>
    <vehicle id="100" depart="190.00"><route edges="e13 e14 e15 e16"/></vehicle>
</routes>
