<?xml version="1.0"?>

<!-- generated on Mon Nov 25 18:39:49 2013 by SUMO duarouter Version 0.16.0
<?xml version="1.0" encoding="UTF-8"?>

<configuration xmlns:xsi="http://www.w3.org/2001/XMLSchema-instance" xsi:noNamespaceSchemaLocation="http://sumo.sf.net/xsd/duarouterConfiguration.xsd">

    <input>
        <net-file value="sumotest.net.xml"/>
        <trip-files value="sumotest.trips.xml"/>
    </input>

    <output>
        <output-file value="sumotest.rou.xml"/>
    </output>

    <processing>
        <ignore-errors value="true"/>
    </processing>

</configuration>
-->

<routes xmlns:xsi="http://www.w3.org/2001/XMLSchema-instance" xsi:noNamespaceSchemaLocation="http://sumo.sf.net/xsd/routes_file.xsd">
    <vehicle id="0" depart="5.00"><route edges="e14 e15 e16"/></vehicle>
    <vehicle id="1" depart="6.00"><route edges="e5 e20 e21 e10"/></vehicle>
    <vehicle id="2" depart="7.00"><route edges="e10"/></vehicle>
    <vehicle id="3" depart="10.00"><route edges="e9 e10"/></vehicle>
    <vehicle id="4" depart="11.00"><route edges="e14 e5 e6 e25"/></vehicle>
	<vehicle id="5" depart="13.00"><route edges="e2 e23 e24"/></vehicle>
    <vehicle id="6" depart="14.00"><route edges="e1 e18 e19 e20 e21 e10"/></vehicle>
    <vehicle id="7" depart="15.00"><route edges="e11 e12"/></vehicle>
    <vehicle id="8" depart="16.00"><route edges="e2 e23 e24 e25 e26 e27"/></vehicle>
    <vehicle id="9" depart="17.00"><route edges="e7 e8 e26"/></vehicle>
    <vehicle id="10" depart="18.00"><route edges="e3 e19 e20 e21 e10"/></vehicle>
    <vehicle id="11" depart="19.00"><route edges="e17 e11 e12"/></vehicle>
    <vehicle id="12" depart="20.00"><route edges="e1 e18 e19 e20 e21 e22 e12"/></vehicle>
    <vehicle id="13" depart="21.00"><route edges="e7 e21 e22 e12"/></vehicle>
    <vehicle id="14" depart="23.00"><route edges="e1 e18 e19 e20 e8"/></vehicle>
    <vehicle id="15" depart="24.00"><route edges="e7 e21 e22"/></vehicle>
    <vehicle id="16" depart="26.00"><route edges="e13 e14 e5 e6 e25"/></vehicle>
    <vehicle id="17" depart="28.00"><route edges="e18 e4"/></vehicle>
    <vehicle id="18" depart="30.00"><route edges="e3 e19 e20 e8"/></vehicle>
    <vehicle id="19" depart="32.00"><route edges="e8"/></vehicle>
    <vehicle id="20" depart="34.00"><route edges="e1 e2 e23"/></vehicle>
    <vehicle id="21" depart="36.00"><route edges="e1 e18 e19 e20 e21"/></vehicle>
    <vehicle id="22" depart="38.00"><route edges="e18 e4"/></vehicle>
    <vehicle id="23" depart="40.00"><route edges="e1 e18 e19 e6"/></vehicle>
    <vehicle id="24" depart="42.00"><route edges="e5"/></vehicle>
    <vehicle id="25" depart="44.00"><route edges="e16 e9 e22 e12"/></vehicle>
    <vehicle id="26" depart="46.00"><route edges="e8 e26"/></vehicle>
    <vehicle id="27" depart="48.00"><route edges="e1 e18 e4 e24 e25 e26"/></vehicle>
    <vehicle id="28" depart="50.00"><route edges="e2 e23"/></vehicle>
    <vehicle id="29" depart="52.00"><route edges="e14 e15 e7"/></vehicle>
    <vehicle id="30" depart="54.00"><route edges="e13 e3 e4"/></vehicle>
    <vehicle id="31" depart="56.00"><route edges="e3 e19 e20 e8"/></vehicle>
    <vehicle id="32" depart="58.00"><route edges="e1 e18 e19"/></vehicle>
    <vehicle id="33" depart="60.00"><route edges="e1 e18 e4"/></vehicle>
    <vehicle id="34" depart="62.00"><route edges="e10"/></vehicle>
    <vehicle id="35" depart="64.00"><route edges="e19 e20 e21 e22 e12"/></vehicle>
    <vehicle id="36" depart="66.00"><route edges="e5 e20 e21 e22 e12"/></vehicle>
    <vehicle id="37" depart="66.00"><route edges="e15 e16 e9 e22 e12"/></vehicle>
    <vehicle id="38" depart="68.00"><route edges="e1 e18 e19 e20 e8"/></vehicle>
    <vehicle id="39" depart="70.00"><route edges="e5 e6"/></vehicle>
    <vehicle id="40" depart="72.00"><route edges="e14 e15 e16 e17"/></vehicle>
    <vehicle id="41" depart="74.00"><route edges="e7 e21 e22 e12"/></vehicle>
    <vehicle id="42" depart="76.00"><route edges="e14 e15 e7 e21 e10 e27"/></vehicle>
    <vehicle id="43" depart="78.00"><route edges="e7 e21 e10 e27"/></vehicle>
    <vehicle id="44" depart="80.00"><route edges="e14 e15 e16 e9"/></vehicle>
    <vehicle id="45" depart="82.00"><route edges="e5"/></vehicle>
    <vehicle id="46" depart="84.00"><route edges="e13 e14 e15 e16 e17 e11"/></vehicle>
    <vehicle id="47" depart="86.00"><route edges="e8 e26 e27"/></vehicle>
    <vehicle id="48" depart="88.00"><route edges="e3 e19 e6"/></vehicle>
    <vehicle id="49" depart="90.00"><route edges="e24 e25 e26 e27"/></vehicle>
    <vehicle id="50" depart="92.00"><route edges="e13 e3 e4"/></vehicle>
    <vehicle id="51" depart="94.00"><route edges="e18 e19"/></vehicle>
    <vehicle id="52" depart="96.00"><route edges="e15 e7 e8 e26"/></vehicle>
    <vehicle id="53" depart="98.00"><route edges="e3 e19 e20 e21 e10"/></vehicle>
    <vehicle id="54" depart="100.00"><route edges="e2"/></vehicle>
    <vehicle id="55" depart="102.00"><route edges="e19 e20 e8"/></vehicle>
    <vehicle id="56" depart="104.00"><route edges="e6 e25"/></vehicle>
    <vehicle id="57" depart="106.00"><route edges="e1 e18 e19 e20 e21"/></vehicle>
    <vehicle id="58" depart="108.00"><route edges="e26"/></vehicle>
    <vehicle id="59" depart="110.00"><route edges="e17 e11"/></vehicle>
    <vehicle id="60" depart="112.00"><route edges="e13 e14 e5 e6"/></vehicle>
    <vehicle id="61" depart="114.00"><route edges="e3"/></vehicle>
    <vehicle id="62" depart="116.00"><route edges="e16 e9 e10"/></vehicle>
    <vehicle id="63" depart="118.00"><route edges="e21 e22 e12"/></vehicle>
    <vehicle id="64" depart="120.00"><route edges="e1 e18 e4 e24 e25 e26"/></vehicle>
    <vehicle id="65" depart="122.00"><route edges="e7 e8 e26"/></vehicle>
    <vehicle id="66" depart="124.00"><route edges="e17"/></vehicle>
    <vehicle id="67" depart="126.00"><route edges="e13 e14 e5 e20 e21 e22 e12"/></vehicle>
    <vehicle id="68" depart="128.00"><route edges="e14 e15 e7 e21 e22 e12"/></vehicle>
    <vehicle id="69" depart="130.00"><route edges="e9 e10 e27"/></vehicle>
    <vehicle id="70" depart="132.00"><route edges="e13 e14 e5 e6"/></vehicle>
    <vehicle id="71" depart="134.00"><route edges="e17 e11 e12"/></vehicle>
    <vehicle id="72" depart="136.00"><route edges="e25"/></vehicle>
    <vehicle id="73" depart="138.00"><route edges="e3 e19 e20 e21"/></vehicle>
    <vehicle id="74" depart="140.00"><route edges="e13 e14 e15 e16 e17 e11"/></vehicle>
    <vehicle id="75" depart="142.00"><route edges="e9 e22 e12"/></vehicle>
    <vehicle id="76" depart="144.00"><route edges="e14 e5"/></vehicle>
    <vehicle id="77" depart="146.00"><route edges="e7 e21 e10"/></vehicle>
    <vehicle id="78" depart="148.00"><route edges="e3 e19 e6"/></vehicle>
    <vehicle id="79" depart="150.00"><route edges="e16"/></vehicle>
    <vehicle id="80" depart="152.00"><route edges="e1 e18 e19 e6"/></vehicle>
    <vehicle id="81" depart="154.00"><route edges="e7 e8"/></vehicle>
    <vehicle id="82" depart="156.00"><route edges="e5 e20 e21 e10"/></vehicle>
    <vehicle id="83" depart="158.00"><route edges="e4"/></vehicle>
    <vehicle id="84" depart="160.00"><route edges="e9 e22 e12"/></vehicle>
    <vehicle id="85" depart="162.00"><route edges="e22 e12"/></vehicle>
    <vehicle id="86" depart="164.00"><route edges="e3 e4"/></vehicle>
    <vehicle id="87" depart="166.00"><route edges="e1 e18 e19 e20 e8"/></vehicle>
    <vehicle id="88" depart="168.00"><route edges="e16 e17"/></vehicle>
    <vehicle id="89" depart="170.00"><route edges="e14 e15 e7 e8 e26"/></vehicle>
    <vehicle id="90" depart="172.00"><route edges="e3 e19 e6 e25 e26 e27"/></vehicle>
    <vehicle id="91" depart="174.00"><route edges="e5 e20 e21 e22 e12"/></vehicle>
    <vehicle id="92" depart="176.00"><route edges="e5 e20 e21 e22 e12"/></vehicle>
    <vehicle id="93" depart="178.00"><route edges="e1 e18 e4 e24 e25"/></vehicle>
    <vehicle id="94" depart="180.00"><route edges="e16 e9 e22"/></vehicle>
    <vehicle id="95" depart="182.00"><route edges="e8 e26"/></vehicle>
    <vehicle id="96" depart="184.00"><route edges="e3 e19 e6 e25 e26 e27"/></vehicle>
    <vehicle id="97" depart="186.00"><route edges="e13 e14 e5 e20 e21"/></vehicle>
    <vehicle id="98" depart="188.00"><route edges="e13 e14 e5 e6"/></vehicle>
    <vehicle id="99" depart="190.00"><route edges="e1 e18 e19 e20 e21 e22 e12"/></vehicle>
    <vehicle id="100" depart="190.00"><route edges="e13 e14 e15 e16"/></vehicle>
    <vehicle id="101" depart="192.00"><route edges="e5 e6 e25"/></vehicle>
    <vehicle id="102" depart="194.00"><route edges="e8 e26 e27"/></vehicle>
    <vehicle id="103" depart="196.00"><route edges="e19 e20 e8"/></vehicle>
    <vehicle id="104" depart="198.00"><route edges="e13 e14 e5 e20 e21 e10"/></vehicle>
    <vehicle id="105" depart="200.00"><route edges="e1 e18 e19 e20"/></vehicle>
    <vehicle id="106" depart="202.00"><route edges="e1 e18 e19 e20 e21 e22"/></vehicle>
    <vehicle id="107" depart="216.00"><route edges="e4 e24 e25 e26"/></vehicle>
    <vehicle id="108" depart="218.00"><route edges="e5 e20"/></vehicle>
    <vehicle id="109" depart="220.00"><route edges="e13 e3"/></vehicle>
    <vehicle id="110" depart="222.00"><route edges="e15 e16 e9"/></vehicle>
    <vehicle id="111" depart="224.00"><route edges="e13 e14 e15 e16"/></vehicle>
    <vehicle id="112" depart="226.00"><route edges="e1 e18 e4"/></vehicle>
    <vehicle id="113" depart="228.00"><route edges="e13 e14 e5 e20 e21 e10"/></vehicle>
    <vehicle id="114" depart="230.00"><route edges="e1 e18 e4 e24 e25 e26"/></vehicle>
    <vehicle id="115" depart="232.00"><route edges="e3 e19 e6 e25"/></vehicle>
    <vehicle id="116" depart="234.00"><route edges="e18 e19 e20 e8"/></vehicle>
    <vehicle id="117" depart="236.00"><route edges="e14 e15 e7 e21 e10 e27"/></vehicle>
    <vehicle id="118" depart="238.00"><route edges="e3 e19 e20 e21 e10"/></vehicle>
    <vehicle id="119" depart="240.00"><route edges="e13 e14 e15 e7"/></vehicle>
    <vehicle id="120" depart="242.00"><route edges="e13 e14 e15 e16 e17"/></vehicle>
    <vehicle id="121" depart="244.00"><route edges="e13 e14 e5 e20 e21 e22 e12"/></vehicle>
    <vehicle id="122" depart="246.00"><route edges="e19 e6 e25"/></vehicle>
    <vehicle id="123" depart="248.00"><route edges="e22 e12"/></vehicle>
    <vehicle id="124" depart="250.00"><route edges="e21 e22 e12"/></vehicle>
    <vehicle id="125" depart="252.00"><route edges="e5 e20 e21 e10"/></vehicle>
    <vehicle id="126" depart="254.00"><route edges="e3 e19 e6"/></vehicle>
    <vehicle id="127" depart="256.00"><route edges="e5 e20 e21 e22 e12"/></vehicle>
    <vehicle id="128" depart="258.00"><route edges="e13 e14"/></vehicle>
    <vehicle id="129" depart="260.00"><route edges="e26 e27"/></vehicle>
    <vehicle id="130" depart="262.00"><route edges="e4 e24 e25 e26"/></vehicle>
    <vehicle id="131" depart="264.00"><route edges="e11 e12"/></vehicle>
    <vehicle id="132" depart="266.00"><route edges="e3 e19 e20 e8"/></vehicle>
    <vehicle id="133" depart="268.00"><route edges="e13 e14 e5 e20 e8"/></vehicle>
    <vehicle id="134" depart="270.00"><route edges="e15 e7 e8"/></vehicle>
    <vehicle id="135" depart="272.00"><route edges="e13 e14 e5 e6 e25"/></vehicle>
    <vehicle id="136" depart="274.00"><route edges="e19 e20 e21 e22 e12"/></vehicle>
    <vehicle id="137" depart="276.00"><route edges="e15 e16 e9"/></vehicle>
    <vehicle id="138" depart="278.00"><route edges="e20 e21 e10"/></vehicle>
    <vehicle id="139" depart="280.00"><route edges="e13 e3 e4"/></vehicle>
    <vehicle id="140" depart="282.00"><route edges="e2 e23 e24 e25"/></vehicle>
    <vehicle id="141" depart="284.00"><route edges="e19 e20 e21 e22"/></vehicle>
    <vehicle id="142" depart="286.00"><route edges="e2"/></vehicle>
    <vehicle id="143" depart="288.00"><route edges="e15 e7 e8 e26"/></vehicle>
    <vehicle id="144" depart="290.00"><route edges="e2 e23"/></vehicle>
    <vehicle id="145" depart="292.00"><route edges="e3 e19 e20 e21 e10"/></vehicle>
    <vehicle id="146" depart="294.00"><route edges="e1 e18 e19 e20 e21 e22 e12"/></vehicle>
    <vehicle id="147" depart="296.00"><route edges="e3 e19 e20 e21 e22 e12"/></vehicle>
    <vehicle id="148" depart="298.00"><route edges="e11"/></vehicle>
    <vehicle id="149" depart="300.00"><route edges="e13 e14 e5 e20"/></vehicle>
    <vehicle id="150" depart="302.00"><route edges="e15 e16 e9"/></vehicle>
    <vehicle id="151" depart="304.00"><route edges="e15 e16 e17"/></vehicle>
    <vehicle id="152" depart="306.00"><route edges="e21 e10"/></vehicle>
    <vehicle id="153" depart="308.00"><route edges="e8 e26 e27"/></vehicle>
    <vehicle id="154" depart="310.00"><route edges="e19 e20 e21 e22 e12"/></vehicle>
    <vehicle id="155" depart="312.00"><route edges="e2 e23"/></vehicle>
    <vehicle id="156" depart="314.00"><route edges="e10"/></vehicle>
    <vehicle id="157" depart="316.00"><route edges="e4 e24 e25 e26 e27"/></vehicle>
    <vehicle id="158" depart="318.00"><route edges="e16 e17"/></vehicle>
    <vehicle id="159" depart="320.00"><route edges="e1 e18 e19 e20 e8"/></vehicle>
    <vehicle id="160" depart="322.00"><route edges="e18 e19 e6 e25"/></vehicle>
    <vehicle id="161" depart="324.00"><route edges="e25 e26"/></vehicle>
    <vehicle id="162" depart="326.00"><route edges="e2 e23 e24"/></vehicle>
    <vehicle id="163" depart="328.00"><route edges="e1 e18 e19 e20 e21 e10"/></vehicle>
    <vehicle id="164" depart="330.00"><route edges="e11 e12"/></vehicle>
    <vehicle id="165" depart="332.00"><route edges="e2 e23 e24 e25 e26 e27"/></vehicle>
    <vehicle id="166" depart="334.00"><route edges="e7 e8 e26"/></vehicle>
    <vehicle id="167" depart="336.00"><route edges="e3 e19 e20 e21 e10"/></vehicle>
    <vehicle id="168" depart="338.00"><route edges="e17 e11 e12"/></vehicle>
    <vehicle id="169" depart="340.00"><route edges="e1 e18 e19 e20 e21 e22 e12"/></vehicle>
	<vehicle id="301" depart="340.00"><route edges="e18 e4"/></vehicle>
    <vehicle id="170" depart="343.00"><route edges="e1 e18 e19 e6"/></vehicle>
    <vehicle id="171" depart="346.00"><route edges="e5"/></vehicle>
    <vehicle id="172" depart="349.00"><route edges="e16 e9 e22 e12"/></vehicle>
    <vehicle id="173" depart="352.00"><route edges="e8 e26"/></vehicle>
    <vehicle id="174" depart="355.00"><route edges="e1 e18 e4 e24 e25 e26"/></vehicle>
    <vehicle id="175" depart="358.00"><route edges="e2 e23"/></vehicle>
    <vehicle id="176" depart="361.00"><route edges="e14 e15 e7"/></vehicle>
    <vehicle id="177" depart="364.00"><route edges="e13 e3 e4"/></vehicle>
    <vehicle id="178" depart="367.00"><route edges="e3 e19 e20 e8"/></vehicle>
    <vehicle id="179" depart="370.00"><route edges="e1 e18 e19"/></vehicle>
    <vehicle id="180" depart="373.00"><route edges="e1 e18 e4"/></vehicle>
    <vehicle id="181" depart="376.00"><route edges="e10"/></vehicle>
    <vehicle id="182" depart="379.00"><route edges="e19 e20 e21 e22 e12"/></vehicle>
    <vehicle id="183" depart="382.00"><route edges="e5 e20 e21 e22 e12"/></vehicle>
    <vehicle id="184" depart="385.00"><route edges="e15 e16 e9 e22 e12"/></vehicle>
    <vehicle id="185" depart="388.00"><route edges="e1 e18 e19 e20 e8"/></vehicle>
    <vehicle id="186" depart="391.00"><route edges="e5 e6"/></vehicle>
    <vehicle id="187" depart="394.00"><route edges="e14 e15 e16 e17"/></vehicle>
    <vehicle id="188" depart="397.00"><route edges="e7 e21 e22 e12"/></vehicle>
    <vehicle id="189" depart="400.00"><route edges="e14 e15 e7 e21 e10 e27"/></vehicle>
    <vehicle id="190" depart="403.00"><route edges="e7 e21 e10 e27"/></vehicle>
    <vehicle id="191" depart="406.00"><route edges="e14 e15 e16 e9"/></vehicle>
    <vehicle id="192" depart="409.00"><route edges="e5"/></vehicle>
    <vehicle id="193" depart="412.00"><route edges="e13 e14 e15 e16 e17 e11"/></vehicle>
    <vehicle id="194" depart="415.00"><route edges="e8 e26 e27"/></vehicle>
    <vehicle id="195" depart="418.00"><route edges="e3 e19 e6"/></vehicle>
    <vehicle id="196" depart="421.00"><route edges="e24 e25 e26 e27"/></vehicle>
    <vehicle id="197" depart="424.00"><route edges="e13 e3 e4"/></vehicle>
    <vehicle id="198" depart="427.00"><route edges="e18 e19"/></vehicle>
    <vehicle id="199" depart="430.00"><route edges="e15 e7 e8 e26"/></vehicle>
    <vehicle id="200" depart="433.00"><route edges="e3 e19 e20 e21 e10"/></vehicle>
    <vehicle id="201" depart="433.00"><route edges="e2"/></vehicle>
    <vehicle id="202" depart="435.00"><route edges="e19 e20 e8"/></vehicle>
    <vehicle id="203" depart="437.00"><route edges="e6 e25"/></vehicle>
    <vehicle id="204" depart="439.00"><route edges="e1 e18 e19 e20 e21"/></vehicle>
    <vehicle id="205" depart="441.00"><route edges="e26"/></vehicle>
    <vehicle id="206" depart="443.00"><route edges="e17 e11"/></vehicle>
    <vehicle id="207" depart="445.00"><route edges="e13 e14 e5 e6"/></vehicle>
    <vehicle id="208" depart="447.00"><route edges="e3"/></vehicle>
    <vehicle id="209" depart="449.00"><route edges="e16 e9 e10"/></vehicle>
    <vehicle id="210" depart="451.00"><route edges="e21 e22 e12"/></vehicle>
    <vehicle id="211" depart="453.00"><route edges="e1 e18 e4 e24 e25 e26"/></vehicle>
    <vehicle id="212" depart="455.00"><route edges="e7 e8 e26"/></vehicle>
    <vehicle id="213" depart="457.00"><route edges="e17"/></vehicle>
    <vehicle id="214" depart="459.00"><route edges="e13 e14 e5 e20 e21 e22 e12"/></vehicle>
    <vehicle id="215" depart="461.00"><route edges="e14 e15 e7 e21 e22 e12"/></vehicle>
    <vehicle id="216" depart="463.00"><route edges="e9 e10 e27"/></vehicle>
    <vehicle id="217" depart="465.00"><route edges="e13 e14 e5 e6"/></vehicle>
    <vehicle id="218" depart="467.00"><route edges="e17 e11 e12"/></vehicle>
    <vehicle id="219" depart="469.00"><route edges="e25"/></vehicle>
    <vehicle id="220" depart="471.00"><route edges="e3 e19 e20 e21"/></vehicle>
    <vehicle id="221" depart="473.00"><route edges="e13 e14 e15 e16 e17 e11"/></vehicle>
    <vehicle id="222" depart="475.00"><route edges="e9 e22 e12"/></vehicle>
    <vehicle id="223" depart="477.00"><route edges="e14 e5"/></vehicle>
    <vehicle id="224" depart="479.00"><route edges="e7 e21 e10"/></vehicle>
    <vehicle id="225" depart="481.00"><route edges="e3 e19 e6"/></vehicle>
    <vehicle id="226" depart="483.00"><route edges="e16"/></vehicle>
    <vehicle id="227" depart="485.00"><route edges="e1 e18 e19 e6"/></vehicle>
    <vehicle id="228" depart="487.00"><route edges="e7 e8"/></vehicle>
    <vehicle id="229" depart="489.00"><route edges="e5 e20 e21 e10"/></vehicle>
    <vehicle id="230" depart="491.00"><route edges="e4"/></vehicle>
    <vehicle id="231" depart="492.00"><route edges="e9 e22 e12"/></vehicle>
	<vehicle id="232" depart="493.00"><route edges="e13 e14 e5 e6"/></vehicle>
    <vehicle id="233" depart="494.00"><route edges="e17 e11 e12"/></vehicle>
    <vehicle id="234" depart="496.00"><route edges="e25"/></vehicle>
    <vehicle id="235" depart="498.00"><route edges="e3 e19 e20 e21"/></vehicle>
    <vehicle id="236" depart="499.00"><route edges="e13 e14 e15 e16 e17 e11"/></vehicle>
    <vehicle id="237" depart="500.00"><route edges="e9 e22 e12"/></vehicle>
    <vehicle id="238" depart="501.00"><route edges="e14 e5"/></vehicle>
    <vehicle id="239" depart="502.00"><route edges="e7 e21 e10"/></vehicle>
    <vehicle id="240" depart="503.00"><route edges="e3 e19 e6"/></vehicle>
    <vehicle id="241" depart="504.00"><route edges="e16"/></vehicle>
    <vehicle id="242" depart="505.00"><route edges="e1 e18 e19 e6"/></vehicle>
    <vehicle id="243" depart="506.00"><route edges="e7 e8"/></vehicle>
    <vehicle id="244" depart="507.00"><route edges="e5 e20 e21 e10"/></vehicle>
    <vehicle id="245" depart="508.00"><route edges="e4"/></vehicle>
    <vehicle id="246" depart="509.00"><route edges="e9 e22 e12"/></vehicle>
    <vehicle id="247" depart="510.00"><route edges="e22 e12"/></vehicle>
    <vehicle id="248" depart="511.00"><route edges="e3 e4"/></vehicle>
    <vehicle id="249" depart="512.00"><route edges="e1 e18 e19 e20 e8"/></vehicle>
    <vehicle id="250" depart="513.00"><route edges="e16 e17"/></vehicle>
    <vehicle id="251" depart="514.00"><route edges="e14 e15 e7 e8 e26"/></vehicle>
    <vehicle id="252" depart="515.00"><route edges="e3 e19 e6 e25 e26 e27"/></vehicle>
    <vehicle id="253" depart="516.00"><route edges="e5 e20 e21 e22 e12"/></vehicle>
    <vehicle id="254" depart="517.00"><route edges="e5 e20 e21 e22 e12"/></vehicle>
    <vehicle id="255" depart="518.00"><route edges="e1 e18 e4 e24 e25"/></vehicle>
    <vehicle id="256" depart="519.00"><route edges="e16 e9 e22"/></vehicle>
    <vehicle id="257" depart="520.00"><route edges="e8 e26"/></vehicle>
    <vehicle id="258" depart="521.00"><route edges="e3 e19 e6 e25 e26 e27"/></vehicle>
    <vehicle id="259" depart="522.00"><route edges="e13 e14 e5 e20 e21"/></vehicle>
    <vehicle id="260" depart="523.00"><route edges="e13 e14 e5 e6"/></vehicle>
    <vehicle id="261" depart="524.00"><route edges="e1 e18 e19 e20 e21 e22 e12"/></vehicle>
    <vehicle id="262" depart="525.00"><route edges="e13 e14 e15 e16"/></vehicle>
    <vehicle id="263" depart="526.00"><route edges="e5 e6 e25"/></vehicle>
    <vehicle id="264" depart="527.00"><route edges="e8 e26 e27"/></vehicle>
    <vehicle id="265" depart="528.00"><route edges="e19 e20 e8"/></vehicle>
    <vehicle id="266" depart="529.00"><route edges="e13 e14 e5 e20 e21 e10"/></vehicle>
    <vehicle id="267" depart="530.00"><route edges="e1 e18 e19 e20"/></vehicle>
    <vehicle id="268" depart="531.00"><route edges="e1 e18 e19 e20 e21 e22"/></vehicle>
    <vehicle id="269" depart="532.00"><route edges="e19 e20 e8 e26"/></vehicle>
    <vehicle id="270" depart="533.00"><route edges="e11"/></vehicle>
    <vehicle id="271" depart="534.00"><route edges="e13 e14 e15"/></vehicle>
    <vehicle id="272" depart="535.00"><route edges="e15 e16 e9 e10"/></vehicle>
    <vehicle id="273" depart="536.00"><route edges="e18 e19 e20 e21 e10"/></vehicle>
    <vehicle id="274" depart="537.00"><route edges="e4 e24 e25 e26 e27"/></vehicle>
    <vehicle id="275" depart="538.00"><route edges="e4 e24 e25 e26"/></vehicle>
    <vehicle id="276" depart="539.00"><route edges="e5 e20"/></vehicle>
    <vehicle id="277" depart="540.00"><route edges="e13 e3"/></vehicle>
    <vehicle id="278" depart="541.00"><route edges="e15 e16 e9"/></vehicle>
    <vehicle id="279" depart="542.00"><route edges="e13 e14 e15 e16"/></vehicle>
    <vehicle id="280" depart="543.00"><route edges="e1 e18 e4"/></vehicle>
    <vehicle id="281" depart="544.00"><route edges="e13 e14 e5 e20 e21 e10"/></vehicle>
    <vehicle id="282" depart="545.00"><route edges="e1 e18 e4 e24 e25 e26"/></vehicle>
    <vehicle id="283" depart="546.00"><route edges="e3 e19 e6 e25"/></vehicle>
    <vehicle id="284" depart="547.00"><route edges="e18 e19 e20 e8"/></vehicle>
    <vehicle id="285" depart="548.00"><route edges="e14 e15 e7 e21 e10 e27"/></vehicle>
    <vehicle id="286" depart="549.00"><route edges="e3 e19 e20 e21 e10"/></vehicle>
    <vehicle id="287" depart="550.00"><route edges="e13 e14 e15 e7"/></vehicle>
    <vehicle id="288" depart="551.00"><route edges="e13 e14 e15 e16 e17"/></vehicle>
    <vehicle id="289" depart="552.00"><route edges="e13 e14 e5 e20 e21 e22 e12"/></vehicle>
    <vehicle id="290" depart="553.00"><route edges="e19 e6 e25"/></vehicle>
    <vehicle id="291" depart="554.00"><route edges="e22 e12"/></vehicle>
    <vehicle id="292" depart="555.00"><route edges="e21 e22 e12"/></vehicle>
    <vehicle id="293" depart="556.00"><route edges="e5 e20 e21 e10"/></vehicle>
    <vehicle id="294" depart="557.00"><route edges="e3 e19 e6"/></vehicle>
    <vehicle id="295" depart="558.00"><route edges="e5 e20 e21 e22 e12"/></vehicle>
    <vehicle id="296" depart="559.00"><route edges="e13 e14"/></vehicle>
    <vehicle id="297" depart="547.00"><route edges="e26 e27"/></vehicle>
    <vehicle id="298" depart="548.00"><route edges="e4 e24 e25 e26"/></vehicle>
    <vehicle id="299" depart="549.00"><route edges="e11 e12"/></vehicle>
    <vehicle id="300" depart="550.00"><route edges="e3 e19 e20 e8"/></vehicle>
</routes>
