[General]
debug-on-errors = true
cmdenv-express-mode = true
cmdenv-autoflush = true
cmdenv-status-frequency = 2s
record-eventlog = true

#tkenv-default-config = debug
#tkenv-default-run = 1
tkenv-image-path = bitmaps

#ned-path = ../../src/base;../../src/modules;../../examples;
network = OLSRSim

num-rngs = 3
**.mobility.rng-0 = 1
**.wlan[*].mac.rng-0 = 2

##########################################################
#            Simulation parameters                       #
##########################################################
print-undisposed = false

sim-time-limit = 3000s

**.scalar-recording = true
**.vector-recording = true

**.debug = false
**.coreDebug = false

*.playgroundSizeX = 2500m
*.playgroundSizeY = 2000m
*.playgroundSizeZ = 50m

*.annotations.draw = false
*.obstacles.debug = false
*.world.useTorus = false
*.world.use2D = false

##########################################################
#            Channel Physical Parameters                 #
##########################################################

*.channelControl.carrierFrequency = 2.4GHz
*.channelControl.pMax = 2.0mW
*.channelControl.sat = -110dBm
*.channelControl.alpha = 2
*.channelControl.numChannels = 1
*.channelControl.propagationModel = "NakagamiModel"
*.channelControl.maxInterferenceDistance = 400m

##########################################################
#            TraCIScenarioManager parameters             #
##########################################################
*.manager.updateInterval = 0.1s
*.manager.host = "localhost"
*.manager.port = 9999
*.manager.moduleType = "vanetsim.simulations._nodes.Car"
*.manager.moduleName = "vehicle"
*.manager.moduleDisplayString = ""
*.manager.autoShutdown = true
*.manager.margin = 25

##########################################################
#                       RSU SETTINGS                     #
#                                                        #
#                                                        #
##########################################################
*.rsu[*].mobilityType = "LinearMobility"
*.rsu[*].mobility.speed = 0mps
*.rsu[0].mobility.x = 0
*.rsu[0].mobility.y = 0
*.rsu[0].mobility.z = 3
#*.rsu[*].appType = "TraCIDemoRSU11p"
#*.rsu[*].app.headerLength = 256 bit
#*.rsu[*].app.sendBeacons = false
#*.rsu[*].app.dataOnSch = false
#*.rsu[*].app.sendData = false
#*.rsu[*].app.beaconInterval = 1s
#*.rsu[*].app.dataPriority = 2
#*.rsu[*].app.maxOffset = 0.005s

##########################################################
#                                                        #
#                    NIC-Settings                        #
##########################################################
**.wlan.bitrate = 54Mbps
**.wlan.opMode = default
**.wlan.mgmt.frameCapacity = 10
**.wlan.mgmtType = "Ieee80211MgmtAdhoc"
**.wlan.mac.address = "auto"
**.wlan.mac.maxQueueSize = 14
**.wlan.mac.rtsThresholdBytes = 2346B
**.wlan.mac.retryLimit = 7
**.wlan.mac.cwMinData = ${7, 15, 31}
**.wlan.mac.cwMaxData = 1023
**.wlan.mac.cwMinMulticast = 15
**.wlan.mac.slotTime = 13us 

**.wlan.radio.transmitterPower = 2mW
**.wlan.radio.thermalNoise = -110dBm
**.wlan.radio.sensitivity = -85dBm
**.wlan.radio.pathLossAlpha = 2
**.wlan.radio.snirThreshold = 4dB

##########################################################
#                    WaveAppLayer                        #
##########################################################
#*.vehicle[*].applType = "TraCIDemo11p"
#**.app.debug = false
#**.app.headerLength = 256 bit
#**.app.sendBeacons = false
#**.app.dataOnSch = false
#**.app.sendData = true
#**.app.beaconInterval = 1s
#**.app.beaconPriority = 3
#**.app.dataPriority = 2
#**.app.maxOffset = 0.005s

##########################################################
#                      Mobility                          #
##########################################################

*.vehicle[*].mobilityType = "TraCIMobility"
#*.vehicle[*].mobilityType.debug = true
*.vehicle[*].mobility.x = 0
*.vehicle[*].mobility.y = 0
*.vehicle[*].mobility.z = 1.895

#*.vehicle[*0].mobility.accidentCount = 1
#*.vehicle[*0].mobility.accidentStart = 75s
#*.vehicle[*0].mobility.accidentDuration = 30s

#**.constraintAreaMinX = 0m
#**.constraintAreaMinY = 0m
#**.constraintAreaMinZ = 0m
#**.constraintAreaMaxX = 10699m
#**.constraintAreaMaxY = 7131m
#**.constraintAreaMaxZ = 0m

##########################################################
#                   UDP Apps(on)                         #
##########################################################
*.vehicle[*].udpApp.destAddresses = moduleListByPath("**.rsu[*]")
#**.vehicle[*].udpApp[*].typename = "UDPBasicBurst"
#**.vehicle[*].numUdpApps = 1
*.vehicle[*].udpApp.localPort = 1234
*.vehicle[*].udpApp.destPort = 1234
*.vehicle[*].udpApp.messageLength = 512B 
*.vehicle[*].udpApp.sendInterval = 0.25s + uniform(-0.001s,0.001s)
#**.vehicle[*].udpApp.burstDuration = 0
*.vehicle[*].udpApp.chooseDestAddrMode = "perSend"
*.vehicle[*].udpApp.sleepDuration = 0s
*.vehicle[*].udpApp.burstDuration = 0s
*.vehicle[*].udpApp.delayLimit = 20s
*.vehicle[*].udpApp.startTime = simTime()+1s

# tcp apps (off)
**.vehicle[*].numTcpApps = 0
**.vehicle[*].tcpAppType = "TelnetApp"

# ping app (host[0] pinged by others)
# ping app (off)
**.vehicle[*].pingApp.count = 0
**.vehicle[*].pingApp.startTime = 1s
**.vehicle[*].pingApp.printPing = true

# tcp settings
**.vehicle[*].tcp.mss = 1024
**.vehicle[*].tcp.advertisedWindow = 14336  # 14*mss
**.vehicle[*].tcp.tcpAlgorithmClass = "TCPReno"
**.vehicle[*].tcp.recordStats = true

# ip settings
**.vehicle[*].ip.procDelay = 10us

######################################################################
# manet routing
######################################################################
**.routingProtocol = "OLSR"
#**.vehicle[*].manetrouting.manetmanager.routingProtocol = "AODVUU"
#**.vehicle[*].manetrouting.interfaces = "prefix(wlan)"
#**.wlan[*].opMode = "e"
#**.vehicle[*].wlan.mgmtType = "Ieee80211MgmtSTA" 
**.Hello_ival = 5s
**.Tc_ival = 5s
**.Mid_ival = 5s
**.Willingness = 3 #(0..7) The node's willingness to carry traffic on behalf of other nodes. 0:NEVER .. 7:ALWAYS (section 18.8)
**.use_mac = 0 #Determines if layer 2 notifications are enabled or not (chapter 13)
**.UseIndex = false #use the interface index instead the ip to identify the interface (EXPERIMENTAL)
**.reduceFuncionality = false
**.OLSR_REFRESH_INTERVAL = 2s
**.PublicRoutingTables = false
**.optimizedMid = false #only nodes with more that a interface sends mid messages
**.DelOnlyRtEntriesInrtable_ = false #delete only ip entries that are in the interal routing table 

######################################################################

######################################################################
# OLSR Config
######################################################################

[Config OLSR-Simple-100]
description = "OLSR"
*.manager.launchConfig = xmldoc("..\\_maps\\simple\\sumotest100.launchd.xml")
*.**.nic.phy80211p.decider = xmldoc("..\\_maps\\simple\\config.xml")
*.**.nic.phy80211p.analogueModels = xmldoc("..\\_maps\\simple\\config.xml")
*.playgroundSizeX = 2500m
*.playgroundSizeY = 2500m
*.playgroundSizeZ = 50m
**.roiRects = "0,0-2000,2000"#x,y-X,Y

[Config OLSR-Simple-200]
description = "OLSR"
*.manager.launchConfig = xmldoc("..\\_maps\\simple\\sumotest200.launchd.xml")
*.**.nic.phy80211p.decider = xmldoc("..\\_maps\\simple\\config.xml")
*.**.nic.phy80211p.analogueModels = xmldoc("..\\_maps\\simple\\config.xml")
*.playgroundSizeX = 2500m
*.playgroundSizeY = 2500m
*.playgroundSizeZ = 50m
**.roiRects = "0,0-2000,2000"#x,y-X,Y

[Config OLSR-Simple-300]
description = "OLSR"
*.manager.launchConfig = xmldoc("..\\_maps\\simple\\sumotest300.launchd.xml")
*.**.nic.phy80211p.decider = xmldoc("..\\_maps\\simple\\config.xml")
*.**.nic.phy80211p.analogueModels = xmldoc("..\\_maps\\simple\\config.xml")
*.playgroundSizeX = 2500m
*.playgroundSizeY = 2500m
*.playgroundSizeZ = 50m
**.roiRects = "0,0-2000,2000"#x,y-X,Y

[Config OLSR-i95-100]
description = "OLSR"
*.manager.launchConfig = xmldoc("..\\_maps\\i95highway\\i95highway100.launchd.xml")
*.**.nic.phy80211p.decider = xmldoc("..\\_maps\\i95highway\\config.xml")
*.**.nic.phy80211p.analogueModels = xmldoc("..\\_maps\\i95highway\\config.xml")
*.playgroundSizeX = 3000m
*.playgroundSizeY = 3000m
*.playgroundSizeZ = 50m
**.roiRects = "0,0-2000,2000"#x,y-X,Y

[Config OLSR-i95-200]
description = "OLSR"
*.manager.launchConfig = xmldoc("..\\_maps\\i95highway\\i95highway200.launchd.xml")
*.**.nic.phy80211p.decider = xmldoc("..\\_maps\\i95highway\\config.xml")
*.**.nic.phy80211p.analogueModels = xmldoc("..\\_maps\\i95highway\\config.xml")
*.playgroundSizeX = 3000m
*.playgroundSizeY = 3000m
*.playgroundSizeZ = 50m
**.roiRects = "0,0-2000,2000"#x,y-X,Y

[Config OLSR-i95-300]
description = "OLSR"
*.manager.launchConfig = xmldoc("..\\_maps\\i95highway\\i95highway300.launchd.xml")
*.**.nic.phy80211p.decider = xmldoc("..\\_maps\\i95highway\\config.xml")
*.**.nic.phy80211p.analogueModels = xmldoc("..\\_maps\\i95highway\\config.xml")
*.playgroundSizeX = 3000m
*.playgroundSizeY = 3000m
*.playgroundSizeZ = 50m
**.roiRects = "0,0-2000,2000"#x,y-X,Y

[Config OLSR-Orlando-100]
description = "OLSR"
*.manager.launchConfig = xmldoc("..\\_maps\\downtownorlando\\downtownorlando100.launchd.xml")
*.**.nic.phy80211p.decider = xmldoc("..\\_maps\\downtownorlando\\config.xml")
*.**.nic.phy80211p.analogueModels = xmldoc("..\\_maps\\downtownorlando\\config.xml")
*.playgroundSizeX = 3000m
*.playgroundSizeY = 3000m
*.playgroundSizeZ = 50m
**.roiRects = "0,0-2000,2000"#x,y-X,Y

[Config OLSR-Orlando-200]
description = "OLSR"
*.manager.launchConfig = xmldoc("..\\_maps\\downtownorlando\\downtownorlando200.launchd.xml")
*.**.nic.phy80211p.decider = xmldoc("..\\_maps\\downtownorlando\\config.xml")
*.**.nic.phy80211p.analogueModels = xmldoc("..\\_maps\\downtownorlando\\config.xml")
*.playgroundSizeX = 3000m
*.playgroundSizeY = 3000m
*.playgroundSizeZ = 50m
**.roiRects = "0,0-2000,2000"#x,y-X,Y

[Config OLSR-Orlando-300]
description = "OLSR"
*.manager.launchConfig = xmldoc("..\\_maps\\downtownorlando\\downtownorlando300.launchd.xml")
*.**.nic.phy80211p.decider = xmldoc("..\\_maps\\downtownorlando\\config.xml")
*.**.nic.phy80211p.analogueModels = xmldoc("..\\_maps\\downtownorlando\\config.xml")
*.playgroundSizeX = 3000m
*.playgroundSizeY = 3000m
*.playgroundSizeZ = 50m
**.roiRects = "0,0-2000,2000"#x,y-X,Y

[Config OLSR-SanFrancisco]
description = "OLSR"
*.manager.launchConfig = xmldoc("..\\_maps\\sanfrancisco\\sanfrancisco.launchd.xml")
*.**.nic.phy80211p.decider = xmldoc("..\\_maps\\sanfrancisco\\config.xml")
*.**.nic.phy80211p.analogueModels = xmldoc("..\\_maps\\sanfrancisco\\config.xml")
*.obstacles.obstacles = xmldoc("..\\_maps\\sanfrancisco\\sanfrancisco.obstacles.xml")
*.playgroundSizeX = 3000m
*.playgroundSizeY = 3000m
*.playgroundSizeZ = 50m
**.roiRects = "0,0-2000,2000"#x,y-X,Y

[Config OLSR-Erlangen]
description = "OLSR"
*.manager.launchConfig = xmldoc("..\\_maps\\erlangen\\erlangen.launchd.xml")
*.**.nic.phy80211p.decider = xmldoc("..\\_maps\\erlangen\\config.xml")
*.**.nic.phy80211p.analogueModels = xmldoc("..\\_maps\\erlangen\\config.xml")
*.playgroundSizeX = 2500m
*.playgroundSizeY = 2500m
*.playgroundSizeZ = 50m
*.vehicle[*0].mobility.accidentCount = 1
*.vehicle[*0].mobility.accidentStart = 75s
*.vehicle[*0].mobility.accidentDuration = 30s





